<?xml version="1.0" ?>
<routes>

    <vType id="idmCar" vClass="passenger" carFollowModel="IDM" maxSpeed="10.00" />

    <!-- New routes-->

    <route id="route_22_7" edges="e_20_21_22 e_7_8"></route>
    <route id="route_22_8" edges="e_20_21_22 e_7_8"></route> <!--Extra -->
    <route id="route_22_1" edges="e_20_21_22 e_1_2"></route>

    <route id="route_21_8" edges="e_20_21_22 e_7_8"></route>
    <route id="route_21_7" edges="e_20_21_22 e_7_8"></route> <!--Extra -->

    <route id="route_20_13" edges="e_20_21_22 e_12_13"></route>
    <route id="route_20_12" edges="e_20_21_22 e_12_13"></route> <!--Extra -->
    <route id="route_21_1" edges="e_20_21_22 e_1_2"></route> 

    <route id="route_9_2" edges="e_9_10_11 e_1_2"></route> <!-- New -->
    <route id="route_6_8" edges="e_6_5_4_3 e_7_8"></route> <!-- New -->
    <route id="route_9_19" edges="e_9_10_11 e_18_19"></route> <!-- New -->
    <route id="route_5_7" edges="e_6_5_4_3 e_7_8"></route> <!-- New -->
    <route id="route_11_13" edges="e_9_10_11 e_12_13"></route> <!-- New -->
    <route id="route_22_9" edges="e_20_21_22 e_9_10_11"></route> <!-- New -->
    <route id="route_20_8" edges="e_20_21_22 e_7_8"></route> <!-- New -->
    <route id="route_14_7" edges="e_14_15_16_17 e_7_8"></route> <!-- New -->
    <route id="route_11_19" edges="e_9_10_11 e_18_19"></route> <!-- New -->
    <route id="route_20_9" edges="e_20_21_22 e_9_10_11"></route> <!-- New -->

    <route id="route_10_19" edges="e_9_10_11 e_18_19"></route> <!--Extra -->
    <route id="route_10_18" edges="e_9_10_11 e_18_19"></route>  
    <route id="route_10_2" edges="e_9_10_11 e_18_19"></route>  

    <route id="route_17_18" edges="e_14_15_16_17 e_18_19"></route>
    <route id="route_17_1" edges="e_14_15_16_17 e_1_2"></route>

    <route id="route_16_1" edges="e_14_15_16_17 e_1_2"></route>
    <route id="route_16_2" edges="e_14_15_16_17 e_1_2"></route>

    <route id="route_15_2" edges="e_14_15_16_17 e_1_2"></route> 
    <route id="route_15_1" edges="e_14_15_16_17 e_1_2"></route> <!--Extra -->

    <route id="route_14_8" edges="e_14_15_16_17 e_7_8"></route>

    <route id="route_6_7" edges="e_6_5_4_3 e_7_8"></route>
    <route id="route_6_13" edges="e_6_5_4_3 e_12_13"></route>  <!--Extra -->
    <route id="route_6_12" edges="e_6_5_4_3 e_12_13"></route>  <!--Extra -->

    <route id="route_5_13" edges="e_6_5_4_3 e_12_13"></route>
    <route id="route_5_12" edges="e_6_5_4_3 e_12_13"></route>

    <route id="route_4_13" edges="e_6_5_4_3 e_12_13"></route>
    <route id="route_4_12" edges="e_6_5_4_3 e_12_13"></route>  <!--Extra -->
    <route id="route_4_19" edges="e_6_5_4_3 e_18_19"></route>

    <!-- <route id="route_19_12" edges="e_18_19 e_12_13"></route>
    <route id="route_19_13" edges="e_18_19 e_12_13"></route> -->

    <route id="route_3_19" edges="e_6_5_4_3 e_18_19"></route>
    <route id="route_3_18" edges="e_6_5_4_3 e_18_19"></route>  <!--Extra -->

    <route id="route_11_18" edges="e_9_10_11 e_18_19"></route>
    <route id="route_11_12" edges="e_9_10_11 e_12_13"></route>


  <vehicle id="veh_1_1" type="idmCar" route="route_21_8" depart="1" departLane="1" arrivalLane="1"/>
  <vehicle id="veh_1_2" type="idmCar" route="route_11_18" depart="1" departLane="0" arrivalLane="0"/>
  <vehicle id="veh_1_3" type="idmCar" route="route_10_19" depart="1" departLane="1" arrivalLane="1"/>
  <vehicle id="veh_2_1" type="idmCar" route="route_22_7" depart="2" departLane="0" arrivalLane="0"/>
  <vehicle id="veh_238_1" type="idmCar" route="route_9_2" depart="4" departLane="2" arrivalLane="1"/>
  <vehicle id="veh_4_1" type="idmCar" route="route_5_12" depart="7" departLane="1" arrivalLane="0"/>
  <vehicle id="veh_7_1" type="idmCar" route="route_3_19" depart="7" departLane="3" arrivalLane="1"/>
  <vehicle id="veh_7_2" type="idmCar" route="route_10_19" depart="11" departLane="1" arrivalLane="1"/>
  <vehicle id="veh_11_1" type="idmCar" route="route_21_8" depart="11" departLane="1" arrivalLane="1"/>
  <vehicle id="veh_11_2" type="idmCar" route="route_11_18" depart="13" departLane="0" arrivalLane="0"/>
  <vehicle id="veh_13_1" type="idmCar" route="route_22_7" depart="13" departLane="0" arrivalLane="0"/>
  <vehicle id="veh_13_2" type="idmCar" route="route_21_8" depart="16" departLane="1" arrivalLane="1"/>
  <vehicle id="veh_16_1" type="idmCar" route="route_10_19" depart="16" departLane="1" arrivalLane="1"/>
  <vehicle id="veh_16_2" type="idmCar" route="route_11_18" depart="18" departLane="0" arrivalLane="0"/>
  <vehicle id="veh_18_1" type="idmCar" route="route_21_8" depart="19" departLane="1" arrivalLane="1"/>
  <vehicle id="veh_19_1" type="idmCar" route="route_11_18" depart="20" departLane="0" arrivalLane="0"/>
  <vehicle id="veh_20_1" type="idmCar" route="route_10_19" depart="20" departLane="1" arrivalLane="1"/>
  <vehicle id="veh_20_2" type="idmCar" route="route_10_19" depart="30" departLane="1" arrivalLane="1"/>
  <vehicle id="veh_30_1" type="idmCar" route="route_11_18" depart="31" departLane="0" arrivalLane="0"/>
  <vehicle id="veh_31_1" type="idmCar" route="route_15_2" depart="37" departLane="2" arrivalLane="1"/>
  <vehicle id="veh_37_1" type="idmCar" route="route_10_19" depart="41" departLane="1" arrivalLane="1"/>
  <vehicle id="veh_41_1" type="idmCar" route="route_21_8" depart="41" departLane="1" arrivalLane="1"/>
  <vehicle id="veh_41_2" type="idmCar" route="route_22_7" depart="42" departLane="0" arrivalLane="0"/>
  <vehicle id="veh_42_1" type="idmCar" route="route_11_18" depart="43" departLane="0" arrivalLane="0"/>
  <vehicle id="veh_43_1" type="idmCar" route="route_21_8" depart="44" departLane="1" arrivalLane="1"/>
  <vehicle id="veh_44_1" type="idmCar" route="route_16_1" depart="47" departLane="1" arrivalLane="0"/>
  <vehicle id="veh_47_1" type="idmCar" route="route_17_18" depart="49" departLane="0" arrivalLane="0"/>
  <vehicle id="veh_51_1" type="idmCar" route="route_21_8" depart="52" departLane="1" arrivalLane="1"/>
  <vehicle id="veh_52_1" type="idmCar" route="route_10_19" depart="54" departLane="1" arrivalLane="1"/>
  <vehicle id="veh_54_2" type="idmCar" route="route_20_13" depart="54" departLane="2" arrivalLane="1"/>
  <vehicle id="veh_55_1" type="idmCar" route="route_22_7" depart="55" departLane="0" arrivalLane="0"/>
  <vehicle id="veh_54_1" type="idmCar" route="route_11_18" depart="56" departLane="0" arrivalLane="0"/>
  <vehicle id="veh_56_1" type="idmCar" route="route_16_1" depart="61" departLane="1" arrivalLane="0"/>
  <vehicle id="veh_61_1" type="idmCar" route="route_15_2" depart="62" departLane="2" arrivalLane="1"/>
  <vehicle id="veh_62_1" type="idmCar" route="route_14_7" depart="64" departLane="3" arrivalLane="0"/>
  <vehicle id="veh_64_1" type="idmCar" route="route_17_18" depart="65" departLane="0" arrivalLane="0"/>
  <vehicle id="veh_65_1" type="idmCar" route="route_20_13" depart="65" departLane="2" arrivalLane="1"/>
  <vehicle id="veh_65_2" type="idmCar" route="route_21_8" depart="67" departLane="1" arrivalLane="1"/>
  <vehicle id="veh_67_1" type="idmCar" route="route_22_7" depart="67" departLane="0" arrivalLane="0"/>
  <vehicle id="veh_67_2" type="idmCar" route="route_10_19" depart="70" departLane="1" arrivalLane="1"/>
  <vehicle id="veh_70_1" type="idmCar" route="route_21_8" depart="71" departLane="1" arrivalLane="1"/>
  <vehicle id="veh_71_1" type="idmCar" route="route_11_12" depart="71" departLane="0" arrivalLane="0"/>
  <vehicle id="veh_71_2" type="idmCar" route="route_5_12" depart="75" departLane="1" arrivalLane="0"/>
  <vehicle id="veh_75_1" type="idmCar" route="route_16_1" depart="76" departLane="1" arrivalLane="0"/>
  <vehicle id="veh_76_1" type="idmCar" route="route_15_2" depart="76" departLane="2" arrivalLane="1"/>
  <vehicle id="veh_76_2" type="idmCar" route="route_20_13" depart="80" departLane="2" arrivalLane="1"/>
  <vehicle id="veh_80_1" type="idmCar" route="route_22_7" depart="81" departLane="0" arrivalLane="0"/>
  <vehicle id="veh_81_1" type="idmCar" route="route_10_19" depart="83" departLane="1" arrivalLane="1"/>
  <vehicle id="veh_83_1" type="idmCar" route="route_11_12" depart="85" departLane="0" arrivalLane="0"/>
  <vehicle id="veh_85_1" type="idmCar" route="route_16_1" depart="86" departLane="1" arrivalLane="0"/>
  <vehicle id="veh_86_1" type="idmCar" route="route_5_12" depart="89" departLane="1" arrivalLane="0"/>
  <vehicle id="veh_89_1" type="idmCar" route="route_14_7" depart="89" departLane="3" arrivalLane="0"/>
  <vehicle id="veh_89_2" type="idmCar" route="route_17_18" depart="90" departLane="0" arrivalLane="0"/>
  <vehicle id="veh_90_1" type="idmCar" route="route_20_13" depart="93" departLane="2" arrivalLane="1"/>
  <vehicle id="veh_93_1" type="idmCar" route="route_21_8" depart="95" departLane="1" arrivalLane="1"/>
  <vehicle id="veh_95_1" type="idmCar" route="route_10_19" depart="98" departLane="1" arrivalLane="1"/>
  <vehicle id="veh_98_1" type="idmCar" route="route_11_18" depart="98" departLane="0" arrivalLane="0"/>
  <vehicle id="veh_98_2" type="idmCar" route="route_5_12" depart="101" departLane="1" arrivalLane="0"/>
  <vehicle id="veh_101_1" type="idmCar" route="route_4_13" depart="101" departLane="2" arrivalLane="1"/>
  <vehicle id="veh_101_2" type="idmCar" route="route_16_1" depart="102" departLane="1" arrivalLane="0"/>
  <vehicle id="veh_102_1" type="idmCar" route="route_10_19" depart="108" departLane="1" arrivalLane="1"/>
  <vehicle id="veh_108_1" type="idmCar" route="route_11_18" depart="108" departLane="0" arrivalLane="0"/>
  <vehicle id="veh_108_2" type="idmCar" route="route_21_7" depart="109" departLane="1" arrivalLane="0"/>
  <vehicle id="veh_109_1" type="idmCar" route="route_14_7" depart="111" departLane="3" arrivalLane="0"/>
  <vehicle id="veh_111_1" type="idmCar" route="route_11_18" depart="114" departLane="0" arrivalLane="0"/>
  <vehicle id="veh_114_1" type="idmCar" route="route_10_19" depart="114" departLane="1" arrivalLane="1"/>
  <vehicle id="veh_114_2" type="idmCar" route="route_21_7" depart="117" departLane="1" arrivalLane="0"/>
  <vehicle id="veh_118_1" type="idmCar" route="route_10_19" depart="118" departLane="1" arrivalLane="1"/>
  <vehicle id="veh_117_1" type="idmCar" route="route_22_1" depart="119" departLane="0" arrivalLane="0"/>
  <vehicle id="veh_119_1" type="idmCar" route="route_11_18" depart="121" departLane="0" arrivalLane="0"/>
  <vehicle id="veh_121_1" type="idmCar" route="route_3_19" depart="124" departLane="3" arrivalLane="1"/>
  <vehicle id="veh_124_1" type="idmCar" route="route_11_18" depart="126" departLane="0" arrivalLane="0"/>
  <vehicle id="veh_126_1" type="idmCar" route="route_10_19" depart="127" departLane="1" arrivalLane="1"/>
  <vehicle id="veh_127_1" type="idmCar" route="route_22_7" depart="129" departLane="0" arrivalLane="0"/>
  <vehicle id="veh_129_1" type="idmCar" route="route_21_8" depart="130" departLane="1" arrivalLane="1"/>
  <vehicle id="veh_130_1" type="idmCar" route="route_20_13" depart="134" departLane="2" arrivalLane="1"/>
  <vehicle id="veh_134_1" type="idmCar" route="route_3_19" depart="135" departLane="3" arrivalLane="1"/>
  <vehicle id="veh_135_1" type="idmCar" route="route_10_19" depart="138" departLane="1" arrivalLane="1"/>
  <vehicle id="veh_138_1" type="idmCar" route="route_5_12" depart="146" departLane="1" arrivalLane="0"/>
  <vehicle id="veh_146_1" type="idmCar" route="route_21_8" depart="148" departLane="1" arrivalLane="1"/>
  <vehicle id="veh_148_1" type="idmCar" route="route_21_8" depart="149" departLane="1" arrivalLane="1"/>
  <vehicle id="veh_149_1" type="idmCar" route="route_10_19" depart="150" departLane="1" arrivalLane="1"/>
  <vehicle id="veh_150_1" type="idmCar" route="route_22_1" depart="151" departLane="0" arrivalLane="0"/>
  <vehicle id="veh_151_1" type="idmCar" route="route_22_7" depart="152" departLane="0" arrivalLane="0"/>
  <vehicle id="veh_152_1" type="idmCar" route="route_15_2" depart="155" departLane="2" arrivalLane="1"/>
  <vehicle id="veh_155_1" type="idmCar" route="route_17_18" depart="156" departLane="0" arrivalLane="0"/>
  <vehicle id="veh_156_1" type="idmCar" route="route_3_19" depart="161" departLane="3" arrivalLane="1"/>
  <vehicle id="veh_161_1" type="idmCar" route="route_11_18" depart="162" departLane="0" arrivalLane="0"/>
  <vehicle id="veh_162_1" type="idmCar" route="route_21_8" depart="165" departLane="1" arrivalLane="1"/>
  <vehicle id="veh_165_1" type="idmCar" route="route_22_7" depart="165" departLane="0" arrivalLane="0"/>
  <vehicle id="veh_165_2" type="idmCar" route="route_16_1" depart="169" departLane="1" arrivalLane="0"/>
  <vehicle id="veh_169_1" type="idmCar" route="route_14_7" depart="170" departLane="3" arrivalLane="0"/>
  <vehicle id="veh_170_1" type="idmCar" route="route_17_18" depart="170" departLane="0" arrivalLane="0"/>
  <vehicle id="veh_170_2" type="idmCar" route="route_21_8" depart="174" departLane="1" arrivalLane="1"/>
  <vehicle id="veh_174_1" type="idmCar" route="route_22_7" depart="174" departLane="0" arrivalLane="0"/>
  <vehicle id="veh_174_2" type="idmCar" route="route_20_13" depart="174" departLane="2" arrivalLane="1"/>
  <vehicle id="veh_174_3" type="idmCar" route="route_10_19" depart="178" departLane="1" arrivalLane="1"/>
  <vehicle id="veh_178_1" type="idmCar" route="route_11_18" depart="179" departLane="0" arrivalLane="0"/>
  <vehicle id="veh_179_1" type="idmCar" route="route_15_2" depart="183" departLane="2" arrivalLane="1"/>
  <vehicle id="veh_183_1" type="idmCar" route="route_16_1" depart="184" departLane="1" arrivalLane="0"/>
  <vehicle id="veh_184_1" type="idmCar" route="route_21_7" depart="187" departLane="1" arrivalLane="0"/>
  <vehicle id="veh_187_1" type="idmCar" route="route_22_8" depart="187" departLane="0" arrivalLane="1"/>
  <vehicle id="veh_187_2" type="idmCar" route="route_17_18" depart="194" departLane="0" arrivalLane="0"/>
  <vehicle id="veh_194_1" type="idmCar" route="route_16_1" depart="194" departLane="1" arrivalLane="0"/>
  <vehicle id="veh_194_2" type="idmCar" route="route_15_2" depart="194" departLane="2" arrivalLane="1"/>
  <vehicle id="veh_194_3" type="idmCar" route="route_21_8" depart="198" departLane="1" arrivalLane="1"/>
  <vehicle id="veh_198_1" type="idmCar" route="route_20_13" depart="199" departLane="2" arrivalLane="1"/>
  <vehicle id="veh_199_1" type="idmCar" route="route_4_13" depart="205" departLane="2" arrivalLane="1"/>
  <vehicle id="veh_205_1" type="idmCar" route="route_14_7" depart="208" departLane="3" arrivalLane="0"/>
  <vehicle id="veh_208_1" type="idmCar" route="route_20_13" depart="209" departLane="2" arrivalLane="1"/>
  <vehicle id="veh_209_1" type="idmCar" route="route_21_8" depart="211" departLane="1" arrivalLane="1"/>
  <vehicle id="veh_211_1" type="idmCar" route="route_14_7" depart="218" departLane="3" arrivalLane="0"/>
  <vehicle id="veh_218_1" type="idmCar" route="route_4_13" depart="219" departLane="2" arrivalLane="1"/>
  <vehicle id="veh_219_1" type="idmCar" route="route_5_12" depart="221" departLane="1" arrivalLane="0"/>
  <vehicle id="veh_221_1" type="idmCar" route="route_22_7" depart="225" departLane="0" arrivalLane="0"/>
  <vehicle id="veh_225_1" type="idmCar" route="route_21_8" depart="226" departLane="1" arrivalLane="1"/>
  <vehicle id="veh_226_1" type="idmCar" route="route_11_18" depart="227" departLane="0" arrivalLane="0"/>
  <vehicle id="veh_227_1" type="idmCar" route="route_4_13" depart="232" departLane="2" arrivalLane="1"/>
  <vehicle id="veh_236_1" type="idmCar" route="route_11_18" depart="236" departLane="0" arrivalLane="0"/>
  <vehicle id="veh_237_1" type="idmCar" route="route_10_19" depart="237" departLane="1" arrivalLane="1"/>
  <vehicle id="veh_232_1" type="idmCar" route="route_15_2" depart="238" departLane="2" arrivalLane="1"/>
  <vehicle id="veh_244_1" type="idmCar" route="route_5_12" depart="244" departLane="1" arrivalLane="0"/>
  <vehicle id="veh_248_1" type="idmCar" route="route_22_1" depart="248" departLane="0" arrivalLane="0"/>
  <vehicle id="veh_248_2" type="idmCar" route="route_9_2" depart="248" departLane="2" arrivalLane="1"/>
  <vehicle id="veh_249_1" type="idmCar" route="route_10_19" depart="249" departLane="1" arrivalLane="1"/>
  <vehicle id="veh_249_2" type="idmCar" route="route_11_18" depart="249" departLane="0" arrivalLane="0"/>
  <vehicle id="veh_250_1" type="idmCar" route="route_20_13" depart="250" departLane="2" arrivalLane="1"/>
  <vehicle id="veh_251_1" type="idmCar" route="route_21_8" depart="251" departLane="1" arrivalLane="1"/>
  <vehicle id="veh_254_1" type="idmCar" route="route_15_2" depart="254" departLane="2" arrivalLane="1"/>
  <vehicle id="veh_257_1" type="idmCar" route="route_14_7" depart="257" departLane="3" arrivalLane="0"/>
  <vehicle id="veh_260_1" type="idmCar" route="route_10_19" depart="260" departLane="1" arrivalLane="1"/>
  <vehicle id="veh_260_2" type="idmCar" route="route_11_18" depart="260" departLane="0" arrivalLane="0"/>
  <vehicle id="veh_261_1" type="idmCar" route="route_21_8" depart="261" departLane="1" arrivalLane="1"/>
  <vehicle id="veh_263_1" type="idmCar" route="route_22_7" depart="263" departLane="0" arrivalLane="0"/>
  <vehicle id="veh_268_1" type="idmCar" route="route_16_1" depart="268" departLane="1" arrivalLane="0"/>
  <vehicle id="veh_271_1" type="idmCar" route="route_4_13" depart="270" departLane="2" arrivalLane="1"/>
  <vehicle id="veh_274_1" type="idmCar" route="route_3_19" depart="271" departLane="3" arrivalLane="1"/>
  <vehicle id="veh_275_1" type="idmCar" route="route_11_18" depart="274" departLane="0" arrivalLane="0"/>
  <vehicle id="veh_270_1" type="idmCar" route="route_21_8" depart="275" departLane="1" arrivalLane="1"/>
  <vehicle id="veh_276_1" type="idmCar" route="route_22_7" depart="276" departLane="0" arrivalLane="0"/>
  <vehicle id="veh_276_2" type="idmCar" route="route_21_8" depart="276" departLane="1" arrivalLane="1"/>
  <vehicle id="veh_277_1" type="idmCar" route="route_20_13" depart="277" departLane="2" arrivalLane="1"/>
  <vehicle id="veh_281_1" type="idmCar" route="route_10_19" depart="281" departLane="1" arrivalLane="1"/>
  <vehicle id="veh_282_1" type="idmCar" route="route_5_12" depart="282" departLane="1" arrivalLane="0"/>
  <vehicle id="veh_283_1" type="idmCar" route="route_5_7" depart="283" departLane="1" arrivalLane="0"/>
  <vehicle id="veh_285_1" type="idmCar" route="route_16_1" depart="285" departLane="1" arrivalLane="0"/>
  <vehicle id="veh_286_1" type="idmCar" route="route_11_18" depart="286" departLane="0" arrivalLane="0"/>
  <vehicle id="veh_289_1" type="idmCar" route="route_21_8" depart="289" departLane="1" arrivalLane="1"/>
  <vehicle id="veh_290_1" type="idmCar" route="route_22_7" depart="289" departLane="0" arrivalLane="0"/>
  <vehicle id="veh_289_2" type="idmCar" route="route_20_13" depart="290" departLane="2" arrivalLane="1"/>
  <vehicle id="veh_291_1" type="idmCar" route="route_21_8" depart="291" departLane="1" arrivalLane="1"/>
  <vehicle id="veh_294_1" type="idmCar" route="route_11_18" depart="294" departLane="0" arrivalLane="0"/>
  <vehicle id="veh_294_2" type="idmCar" route="route_10_19" depart="294" departLane="1" arrivalLane="1"/>
  <vehicle id="veh_294_3" type="idmCar" route="route_11_12" depart="294" departLane="0" arrivalLane="0"/>
  <vehicle id="veh_299_1" type="idmCar" route="route_16_1" depart="299" departLane="1" arrivalLane="0"/>
  <vehicle id="veh_301_1" type="idmCar" route="route_15_2" depart="301" departLane="2" arrivalLane="1"/>
  <vehicle id="veh_308_1" type="idmCar" route="route_20_13" depart="308" departLane="2" arrivalLane="1"/>
  <vehicle id="veh_309_1" type="idmCar" route="route_21_8" depart="309" departLane="1" arrivalLane="1"/>
  <vehicle id="veh_310_1" type="idmCar" route="route_22_7" depart="310" departLane="0" arrivalLane="0"/>
  <vehicle id="veh_310_2" type="idmCar" route="route_10_19" depart="310" departLane="1" arrivalLane="1"/>
  <vehicle id="veh_310_3" type="idmCar" route="route_11_18" depart="310" departLane="0" arrivalLane="0"/>
  <vehicle id="veh_315_1" type="idmCar" route="route_3_19" depart="315" departLane="3" arrivalLane="1"/>
  <vehicle id="veh_319_1" type="idmCar" route="route_22_7" depart="319" departLane="0" arrivalLane="0"/>
  <vehicle id="veh_320_1" type="idmCar" route="route_10_19" depart="320" departLane="1" arrivalLane="1"/>
  <vehicle id="veh_320_2" type="idmCar" route="route_21_8" depart="320" departLane="1" arrivalLane="1"/>
  <vehicle id="veh_323_1" type="idmCar" route="route_15_2" depart="323" departLane="2" arrivalLane="1"/>
  <vehicle id="veh_324_1" type="idmCar" route="route_16_1" depart="324" departLane="1" arrivalLane="0"/>
  <vehicle id="veh_324_2" type="idmCar" route="route_17_18" depart="324" departLane="0" arrivalLane="0"/>
  <vehicle id="veh_326_1" type="idmCar" route="route_17_18" depart="326" departLane="0" arrivalLane="0"/>
  <vehicle id="veh_329_1" type="idmCar" route="route_17_18" depart="329" departLane="0" arrivalLane="0"/>
  <vehicle id="veh_329_2" type="idmCar" route="route_20_13" depart="329" departLane="2" arrivalLane="1"/>
  <vehicle id="veh_329_3" type="idmCar" route="route_22_1" depart="329" departLane="0" arrivalLane="0"/>
  <vehicle id="veh_330_1" type="idmCar" route="route_21_8" depart="330" departLane="1" arrivalLane="1"/>
  <vehicle id="veh_332_1" type="idmCar" route="route_5_12" depart="332" departLane="1" arrivalLane="0"/>
  <vehicle id="veh_334_1" type="idmCar" route="route_11_18" depart="334" departLane="0" arrivalLane="0"/>
  <vehicle id="veh_338_1" type="idmCar" route="route_3_19" depart="338" departLane="3" arrivalLane="1"/>
  <vehicle id="veh_339_1" type="idmCar" route="route_14_7" depart="339" departLane="3" arrivalLane="0"/>
  <vehicle id="veh_344_1" type="idmCar" route="route_16_1" depart="344" departLane="1" arrivalLane="0"/>
  <vehicle id="veh_346_1" type="idmCar" route="route_10_19" depart="346" departLane="1" arrivalLane="1"/>
  <vehicle id="veh_346_2" type="idmCar" route="route_11_18" depart="346" departLane="0" arrivalLane="0"/>
  <vehicle id="veh_347_1" type="idmCar" route="route_21_8" depart="347" departLane="1" arrivalLane="1"/>
  <vehicle id="veh_348_1" type="idmCar" route="route_20_13" depart="348" departLane="2" arrivalLane="1"/>
  <vehicle id="veh_351_1" type="idmCar" route="route_14_7" depart="351" departLane="3" arrivalLane="0"/>
  <vehicle id="veh_355_1" type="idmCar" route="route_21_8" depart="355" departLane="1" arrivalLane="1"/>
  <vehicle id="veh_356_1" type="idmCar" route="route_20_13" depart="356" departLane="2" arrivalLane="1"/>
  <vehicle id="veh_357_1" type="idmCar" route="route_22_7" depart="357" departLane="0" arrivalLane="0"/>
  <vehicle id="veh_358_1" type="idmCar" route="route_11_18" depart="358" departLane="0" arrivalLane="0"/>
  <vehicle id="veh_358_2" type="idmCar" route="route_10_19" depart="358" departLane="1" arrivalLane="1"/>
  <vehicle id="veh_361_1" type="idmCar" route="route_21_8" depart="361" departLane="1" arrivalLane="1"/>
  <vehicle id="veh_362_1" type="idmCar" route="route_22_7" depart="362" departLane="0" arrivalLane="0"/>
  <vehicle id="veh_365_1" type="idmCar" route="route_22_7" depart="365" departLane="0" arrivalLane="0"/>
  <vehicle id="veh_366_1" type="idmCar" route="route_11_12" depart="366" departLane="0" arrivalLane="0"/>
  <vehicle id="veh_367_1" type="idmCar" route="route_10_19" depart="367" departLane="1" arrivalLane="1"/>
  <vehicle id="veh_369_1" type="idmCar" route="route_21_8" depart="369" departLane="1" arrivalLane="1"/>
  <vehicle id="veh_370_1" type="idmCar" route="route_11_12" depart="370" departLane="0" arrivalLane="0"/>
  <vehicle id="veh_372_1" type="idmCar" route="route_16_1" depart="372" departLane="1" arrivalLane="0"/>
  <vehicle id="veh_374_1" type="idmCar" route="route_11_12" depart="374" departLane="0" arrivalLane="0"/>
  <vehicle id="veh_376_1" type="idmCar" route="route_10_19" depart="376" departLane="1" arrivalLane="1"/>
  <vehicle id="veh_378_1" type="idmCar" route="route_11_18" depart="378" departLane="0" arrivalLane="0"/>
  <vehicle id="veh_384_1" type="idmCar" route="route_10_19" depart="384" departLane="1" arrivalLane="1"/>
  <vehicle id="veh_384_2" type="idmCar" route="route_21_8" depart="384" departLane="1" arrivalLane="1"/>
  <vehicle id="veh_384_3" type="idmCar" route="route_10_19" depart="384" departLane="1" arrivalLane="1"/>
  <vehicle id="veh_385_1" type="idmCar" route="route_22_7" depart="385" departLane="0" arrivalLane="0"/>
  <vehicle id="veh_386_1" type="idmCar" route="route_11_18" depart="386" departLane="0" arrivalLane="0"/>
  <vehicle id="veh_390_1" type="idmCar" route="route_17_18" depart="390" departLane="0" arrivalLane="0"/>
  <vehicle id="veh_390_2" type="idmCar" route="route_20_13" depart="390" departLane="2" arrivalLane="1"/>
  <vehicle id="veh_393_1" type="idmCar" route="route_15_2" depart="393" departLane="2" arrivalLane="1"/>
  <vehicle id="veh_393_2" type="idmCar" route="route_17_18" depart="393" departLane="0" arrivalLane="0"/>
  <vehicle id="veh_395_1" type="idmCar" route="route_22_7" depart="395" departLane="0" arrivalLane="0"/>
  <vehicle id="veh_399_1" type="idmCar" route="route_17_18" depart="398" departLane="0" arrivalLane="0"/>
  <vehicle id="veh_398_1" type="idmCar" route="route_21_8" depart="399" departLane="1" arrivalLane="1"/>
  <vehicle id="veh_401_1" type="idmCar" route="route_11_12" depart="401" departLane="0" arrivalLane="0"/>
  <vehicle id="veh_405_1" type="idmCar" route="route_17_18" depart="405" departLane="0" arrivalLane="0"/>
  <vehicle id="veh_405_2" type="idmCar" route="route_5_12" depart="405" departLane="1" arrivalLane="0"/>
  <vehicle id="veh_405_3" type="idmCar" route="route_4_13" depart="405" departLane="2" arrivalLane="1"/>
  <vehicle id="veh_406_1" type="idmCar" route="route_15_2" depart="406" departLane="2" arrivalLane="1"/>
  <vehicle id="veh_409_1" type="idmCar" route="route_14_7" depart="409" departLane="3" arrivalLane="0"/>
  <vehicle id="veh_409_2" type="idmCar" route="route_15_2" depart="409" departLane="2" arrivalLane="1"/>
  <vehicle id="veh_411_1" type="idmCar" route="route_17_18" depart="411" departLane="0" arrivalLane="0"/>
  <vehicle id="veh_412_1" type="idmCar" route="route_22_7" depart="412" departLane="0" arrivalLane="0"/>
  <vehicle id="veh_413_1" type="idmCar" route="route_21_8" depart="413" departLane="1" arrivalLane="1"/>
  <vehicle id="veh_414_1" type="idmCar" route="route_11_18" depart="414" departLane="0" arrivalLane="0"/>
  <vehicle id="veh_418_1" type="idmCar" route="route_17_18" depart="418" departLane="0" arrivalLane="0"/>
  <vehicle id="veh_421_1" type="idmCar" route="route_5_12" depart="421" departLane="1" arrivalLane="0"/>
  <vehicle id="veh_423_1" type="idmCar" route="route_14_7" depart="423" departLane="3" arrivalLane="0"/>
  <vehicle id="veh_424_1" type="idmCar" route="route_17_18" depart="424" departLane="0" arrivalLane="0"/>
  <vehicle id="veh_425_1" type="idmCar" route="route_4_13" depart="425" departLane="2" arrivalLane="1"/>
  <vehicle id="veh_428_1" type="idmCar" route="route_22_7" depart="428" departLane="0" arrivalLane="0"/>
  <vehicle id="veh_429_1" type="idmCar" route="route_11_12" depart="429" departLane="0" arrivalLane="0"/>
  <vehicle id="veh_429_2" type="idmCar" route="route_10_19" depart="429" departLane="1" arrivalLane="1"/>
  <vehicle id="veh_431_1" type="idmCar" route="route_21_8" depart="431" departLane="1" arrivalLane="1"/>
  <vehicle id="veh_433_1" type="idmCar" route="route_11_12" depart="433" departLane="0" arrivalLane="0"/>
  <vehicle id="veh_437_1" type="idmCar" route="route_4_13" depart="437" departLane="2" arrivalLane="1"/>
  <vehicle id="veh_443_1" type="idmCar" route="route_14_7" depart="443" departLane="3" arrivalLane="0"/>
  <vehicle id="veh_444_1" type="idmCar" route="route_17_18" depart="444" departLane="0" arrivalLane="0"/>
  <vehicle id="veh_445_1" type="idmCar" route="route_21_8" depart="445" departLane="1" arrivalLane="1"/>
  <vehicle id="veh_445_2" type="idmCar" route="route_22_7" depart="445" departLane="0" arrivalLane="0"/>
  <vehicle id="veh_447_1" type="idmCar" route="route_20_13" depart="447" departLane="2" arrivalLane="1"/>
  <vehicle id="veh_450_1" type="idmCar" route="route_5_12" depart="450" departLane="1" arrivalLane="0"/>
  <vehicle id="veh_454_1" type="idmCar" route="route_21_8" depart="454" departLane="1" arrivalLane="1"/>
  <vehicle id="veh_454_2" type="idmCar" route="route_22_7" depart="454" departLane="0" arrivalLane="0"/>
  <vehicle id="veh_455_1" type="idmCar" route="route_11_18" depart="455" departLane="0" arrivalLane="0"/>
  <vehicle id="veh_456_1" type="idmCar" route="route_10_19" depart="456" departLane="1" arrivalLane="1"/>
  <vehicle id="veh_458_1" type="idmCar" route="route_20_13" depart="458" departLane="2" arrivalLane="1"/>
  <vehicle id="veh_459_1" type="idmCar" route="route_21_8" depart="459" departLane="1" arrivalLane="1"/>
  <vehicle id="veh_463_1" type="idmCar" route="route_22_1" depart="463" departLane="0" arrivalLane="0"/>
  <vehicle id="veh_463_2" type="idmCar" route="route_11_12" depart="463" departLane="0" arrivalLane="0"/>
  <vehicle id="veh_465_1" type="idmCar" route="route_10_19" depart="465" departLane="1" arrivalLane="1"/>
  <vehicle id="veh_466_1" type="idmCar" route="route_5_12" depart="466" departLane="1" arrivalLane="0"/>
  <vehicle id="veh_468_1" type="idmCar" route="route_21_8" depart="468" departLane="1" arrivalLane="1"/>
  <vehicle id="veh_470_1" type="idmCar" route="route_22_7" depart="470" departLane="0" arrivalLane="0"/>
  <vehicle id="veh_475_1" type="idmCar" route="route_11_18" depart="475" departLane="0" arrivalLane="0"/>
  <vehicle id="veh_476_1" type="idmCar" route="route_10_19" depart="476" departLane="1" arrivalLane="1"/>
  <vehicle id="veh_481_1" type="idmCar" route="route_11_12" depart="481" departLane="0" arrivalLane="0"/>
  <vehicle id="veh_483_1" type="idmCar" route="route_21_8" depart="483" departLane="1" arrivalLane="1"/>
  <vehicle id="veh_486_1" type="idmCar" route="route_14_7" depart="486" departLane="3" arrivalLane="0"/>