<?xml version="1.0" ?>
<routes>


    <vType id="idmCar" vClass="passenger" carFollowModel="IDM" maxSpeed="10.00" />

    <!-- New routes-->

    <route id="route_22_7" edges="e_20_21_22 e_7_8"></route>
    <route id="route_22_8" edges="e_20_21_22 e_7_8"></route> <!--Extra -->
    <route id="route_22_1" edges="e_20_21_22 e_1_2"></route>

    <route id="route_21_8" edges="e_20_21_22 e_7_8"></route>
    <route id="route_21_7" edges="e_20_21_22 e_7_8"></route> <!--Extra -->

    <route id="route_20_13" edges="e_20_21_22 e_12_13"></route>
    <route id="route_20_12" edges="e_20_21_22 e_12_13"></route> <!--Extra -->
    <route id="route_21_1" edges="e_20_21_22 e_1_2"></route> 

    <route id="route_9_2" edges="e_9_10_11 e_1_2"></route> <!-- New -->
    <route id="route_6_8" edges="e_6_5_4_3 e_7_8"></route> <!-- New -->
    <route id="route_9_19" edges="e_9_10_11 e_18_19"></route> <!-- New -->
    <route id="route_5_7" edges="e_6_5_4_3 e_7_8"></route> <!-- New -->
    <route id="route_11_13" edges="e_9_10_11 e_12_13"></route> <!-- New -->
    <route id="route_22_9" edges="e_20_21_22 e_9_10_11"></route> <!-- New -->
    <route id="route_20_8" edges="e_20_21_22 e_7_8"></route> <!-- New -->
    <route id="route_14_7" edges="e_14_15_16_17 e_7_8"></route> <!-- New -->
    <route id="route_11_19" edges="e_9_10_11 e_18_19"></route> <!-- New -->
    <route id="route_20_9" edges="e_20_21_22 e_9_10_11"></route> <!-- New -->

    <route id="route_10_19" edges="e_9_10_11 e_18_19"></route> <!--Extra -->
    <route id="route_10_18" edges="e_9_10_11 e_18_19"></route>  
    <route id="route_10_2" edges="e_9_10_11 e_18_19"></route>  

    <route id="route_17_18" edges="e_14_15_16_17 e_18_19"></route>
    <route id="route_17_1" edges="e_14_15_16_17 e_1_2"></route>

    <route id="route_16_1" edges="e_14_15_16_17 e_1_2"></route>
    <route id="route_16_2" edges="e_14_15_16_17 e_1_2"></route>

    <route id="route_15_2" edges="e_14_15_16_17 e_1_2"></route> 
    <route id="route_15_1" edges="e_14_15_16_17 e_1_2"></route> <!--Extra -->

    <route id="route_14_8" edges="e_14_15_16_17 e_7_8"></route>

    <route id="route_6_7" edges="e_6_5_4_3 e_7_8"></route>
    <route id="route_6_13" edges="e_6_5_4_3 e_12_13"></route>  <!--Extra -->
    <route id="route_6_12" edges="e_6_5_4_3 e_12_13"></route>  <!--Extra -->

    <route id="route_5_13" edges="e_6_5_4_3 e_12_13"></route>
    <route id="route_5_12" edges="e_6_5_4_3 e_12_13"></route>

    <route id="route_4_13" edges="e_6_5_4_3 e_12_13"></route>
    <route id="route_4_12" edges="e_6_5_4_3 e_12_13"></route>  <!--Extra -->
    <route id="route_4_19" edges="e_6_5_4_3 e_18_19"></route>

    <!-- <route id="route_19_12" edges="e_18_19 e_12_13"></route>
    <route id="route_19_13" edges="e_18_19 e_12_13"></route> -->

    <route id="route_3_19" edges="e_6_5_4_3 e_18_19"></route>
    <route id="route_3_18" edges="e_6_5_4_3 e_18_19"></route>  <!--Extra -->

    <route id="route_11_18" edges="e_9_10_11 e_18_19"></route>
    <route id="route_11_12" edges="e_9_10_11 e_12_13"></route>



  <vehicle id="veh_1_1" type="idmCar" route="route_22_7" depart="1" departLane="0" arrivalLane="0"/>
  <vehicle id="veh_1_2" type="idmCar" route="route_21_8" depart="1" departLane="1" arrivalLane="1"/>
  <vehicle id="veh_1_3" type="idmCar" route="route_10_19" depart="1" departLane="1" arrivalLane="1"/>
  <vehicle id="veh_4_1" type="idmCar" route="route_17_18" depart="4" departLane="0" arrivalLane="0"/>
  <vehicle id="veh_5_1" type="idmCar" route="route_16_1" depart="5" departLane="1" arrivalLane="0"/>
  <vehicle id="veh_5_2" type="idmCar" route="route_5_12" depart="5" departLane="1" arrivalLane="0"/>
  <vehicle id="veh_5_3" type="idmCar" route="route_4_13" depart="5" departLane="2" arrivalLane="1"/>
  <vehicle id="veh_10_1" type="idmCar" route="route_20_13" depart="10" departLane="2" arrivalLane="1"/>
  <vehicle id="veh_11_1" type="idmCar" route="route_17_18" depart="11" departLane="0" arrivalLane="0"/>
  <vehicle id="veh_12_1" type="idmCar" route="route_22_7" depart="12" departLane="0" arrivalLane="0"/>
  <vehicle id="veh_14_1" type="idmCar" route="route_21_8" depart="14" departLane="1" arrivalLane="1"/>
  <vehicle id="veh_14_2" type="idmCar" route="route_10_19" depart="14" departLane="1" arrivalLane="1"/>
  <vehicle id="veh_15_1" type="idmCar" route="route_22_1" depart="15" departLane="0" arrivalLane="0"/>
  <vehicle id="veh_15_2" type="idmCar" route="route_11_18" depart="15" departLane="0" arrivalLane="0"/>
  <vehicle id="veh_19_1" type="idmCar" route="route_21_8" depart="19" departLane="1" arrivalLane="1"/>
  <vehicle id="veh_23_1" type="idmCar" route="route_3_19" depart="23" departLane="3" arrivalLane="1"/>
  <vehicle id="veh_24_1" type="idmCar" route="route_4_13" depart="24" departLane="2" arrivalLane="1"/>
  <vehicle id="veh_24_2" type="idmCar" route="route_20_13" depart="24" departLane="2" arrivalLane="1"/>
  <vehicle id="veh_25_1" type="idmCar" route="route_5_12" depart="25" departLane="1" arrivalLane="0"/>
  <vehicle id="veh_30_1" type="idmCar" route="route_15_2" depart="30" departLane="2" arrivalLane="1"/>
  <vehicle id="veh_32_1" type="idmCar" route="route_16_1" depart="32" departLane="1" arrivalLane="0"/>
  <vehicle id="veh_33_1" type="idmCar" route="route_10_19" depart="33" departLane="1" arrivalLane="1"/>
  <vehicle id="veh_34_1" type="idmCar" route="route_11_18" depart="34" departLane="0" arrivalLane="0"/>
  <vehicle id="veh_36_1" type="idmCar" route="route_21_8" depart="36" departLane="1" arrivalLane="1"/>
  <vehicle id="veh_37_1" type="idmCar" route="route_22_7" depart="37" departLane="0" arrivalLane="0"/>
  <vehicle id="veh_39_1" type="idmCar" route="route_20_13" depart="39" departLane="2" arrivalLane="1"/>
  <vehicle id="veh_41_1" type="idmCar" route="route_3_19" depart="41" departLane="3" arrivalLane="1"/>
  <vehicle id="veh_41_2" type="idmCar" route="route_17_18" depart="41" departLane="0" arrivalLane="0"/>
  <vehicle id="veh_43_1" type="idmCar" route="route_11_12" depart="43" departLane="0" arrivalLane="0"/>
  <vehicle id="veh_44_1" type="idmCar" route="route_14_8" depart="44" departLane="3" arrivalLane="1"/>
  <vehicle id="veh_45_1" type="idmCar" route="route_4_13" depart="45" departLane="2" arrivalLane="1"/>
  <vehicle id="veh_47_1" type="idmCar" route="route_5_12" depart="47" departLane="1" arrivalLane="0"/>
  <vehicle id="veh_47_2" type="idmCar" route="route_17_1" depart="47" departLane="0" arrivalLane="0"/>
  <vehicle id="veh_47_3" type="idmCar" route="route_16_2" depart="47" departLane="1" arrivalLane="1"/>
  <vehicle id="veh_51_1" type="idmCar" route="route_10_19" depart="51" departLane="1" arrivalLane="1"/>
  <vehicle id="veh_52_1" type="idmCar" route="route_11_18" depart="52" departLane="0" arrivalLane="0"/>
  <vehicle id="veh_52_2" type="idmCar" route="route_21_8" depart="52" departLane="1" arrivalLane="1"/>
  <vehicle id="veh_52_3" type="idmCar" route="route_22_7" depart="52" departLane="0" arrivalLane="0"/>
  <vehicle id="veh_55_1" type="idmCar" route="route_14_8" depart="55" departLane="3" arrivalLane="1"/>
  <vehicle id="veh_57_1" type="idmCar" route="route_5_12" depart="57" departLane="1" arrivalLane="0"/>
  <vehicle id="veh_57_2" type="idmCar" route="route_3_19" depart="57" departLane="3" arrivalLane="1"/>
  <vehicle id="veh_57_3" type="idmCar" route="route_16_1" depart="57" departLane="1" arrivalLane="0"/>
  <vehicle id="veh_57_4" type="idmCar" route="route_15_2" depart="57" departLane="2" arrivalLane="1"/>
  <vehicle id="veh_65_1" type="idmCar" route="route_10_19" depart="65" departLane="1" arrivalLane="1"/>
  <vehicle id="veh_65_2" type="idmCar" route="route_11_18" depart="65" departLane="0" arrivalLane="0"/>
  <vehicle id="veh_65_3" type="idmCar" route="route_21_8" depart="65" departLane="1" arrivalLane="1"/>
  <vehicle id="veh_65_4" type="idmCar" route="route_22_7" depart="65" departLane="0" arrivalLane="0"/>
  <vehicle id="veh_71_1" type="idmCar" route="route_14_8" depart="71" departLane="3" arrivalLane="1"/>
  <vehicle id="veh_72_1" type="idmCar" route="route_3_19" depart="72" departLane="3" arrivalLane="1"/>
  <vehicle id="veh_74_1" type="idmCar" route="route_5_12" depart="74" departLane="1" arrivalLane="0"/>
  <vehicle id="veh_75_1" type="idmCar" route="route_15_2" depart="75" departLane="2" arrivalLane="1"/>
  <vehicle id="veh_75_2" type="idmCar" route="route_16_1" depart="75" departLane="1" arrivalLane="0"/>
  <vehicle id="veh_75_3" type="idmCar" route="route_4_13" depart="75" departLane="2" arrivalLane="1"/>
  <vehicle id="veh_78_1" type="idmCar" route="route_3_19" depart="78" departLane="3" arrivalLane="1"/>
  <vehicle id="veh_78_2" type="idmCar" route="route_17_18" depart="78" departLane="0" arrivalLane="0"/>
  <vehicle id="veh_81_1" type="idmCar" route="route_17_18" depart="81" departLane="0" arrivalLane="0"/>
  <vehicle id="veh_82_1" type="idmCar" route="route_21_8" depart="82" departLane="1" arrivalLane="1"/>
  <vehicle id="veh_82_2" type="idmCar" route="route_22_7" depart="82" departLane="0" arrivalLane="0"/>
  <vehicle id="veh_86_1" type="idmCar" route="route_11_18" depart="86" departLane="0" arrivalLane="0"/>
  <vehicle id="veh_86_2" type="idmCar" route="route_10_19" depart="86" departLane="1" arrivalLane="1"/>
  <vehicle id="veh_91_1" type="idmCar" route="route_5_12" depart="91" departLane="1" arrivalLane="0"/>
  <vehicle id="veh_91_2" type="idmCar" route="route_3_19" depart="91" departLane="3" arrivalLane="1"/>
  <vehicle id="veh_93_1" type="idmCar" route="route_14_8" depart="93" departLane="3" arrivalLane="1"/>
  <vehicle id="veh_94_1" type="idmCar" route="route_16_1" depart="94" departLane="1" arrivalLane="0"/>
  <vehicle id="veh_94_2" type="idmCar" route="route_15_2" depart="94" departLane="2" arrivalLane="1"/>
  <vehicle id="veh_100_1" type="idmCar" route="route_21_8" depart="100" departLane="1" arrivalLane="1"/>
  <vehicle id="veh_100_2" type="idmCar" route="route_22_7" depart="100" departLane="0" arrivalLane="0"/>
  <vehicle id="veh_101_1" type="idmCar" route="route_10_19" depart="101" departLane="1" arrivalLane="1"/>
  <vehicle id="veh_101_2" type="idmCar" route="route_11_12" depart="101" departLane="0" arrivalLane="0"/>
  <vehicle id="veh_101_3" type="idmCar" route="route_21_8" depart="101" departLane="1" arrivalLane="1"/>
  <vehicle id="veh_101_4" type="idmCar" route="route_22_7" depart="101" departLane="0" arrivalLane="0"/>
  <vehicle id="veh_104_1" type="idmCar" route="route_3_19" depart="104" departLane="3" arrivalLane="1"/>
  <vehicle id="veh_105_1" type="idmCar" route="route_5_12" depart="105" departLane="1" arrivalLane="0"/>
  <vehicle id="veh_106_1" type="idmCar" route="route_4_13" depart="106" departLane="2" arrivalLane="1"/>
  <vehicle id="veh_107_1" type="idmCar" route="route_14_8" depart="107" departLane="3" arrivalLane="1"/>
  <vehicle id="veh_107_2" type="idmCar" route="route_15_2" depart="107" departLane="2" arrivalLane="1"/>
  <vehicle id="veh_107_3" type="idmCar" route="route_16_1" depart="107" departLane="1" arrivalLane="0"/>
  <vehicle id="veh_113_1" type="idmCar" route="route_11_18" depart="113" departLane="0" arrivalLane="0"/>
  <vehicle id="veh_113_2" type="idmCar" route="route_21_8" depart="113" departLane="1" arrivalLane="1"/>
  <vehicle id="veh_113_3" type="idmCar" route="route_22_7" depart="113" departLane="0" arrivalLane="0"/>
  <vehicle id="veh_114_1" type="idmCar" route="route_10_19" depart="114" departLane="1" arrivalLane="1"/>
  <vehicle id="veh_118_1" type="idmCar" route="route_14_8" depart="118" departLane="3" arrivalLane="1"/>
  <vehicle id="veh_118_2" type="idmCar" route="route_15_2" depart="118" departLane="2" arrivalLane="1"/>
  <vehicle id="veh_118_3" type="idmCar" route="route_16_1" depart="118" departLane="1" arrivalLane="0"/>
  <vehicle id="veh_119_1" type="idmCar" route="route_5_12" depart="119" departLane="1" arrivalLane="0"/>
  <vehicle id="veh_122_1" type="idmCar" route="route_17_18" depart="122" departLane="0" arrivalLane="0"/>
  <vehicle id="veh_124_1" type="idmCar" route="route_11_12" depart="124" departLane="0" arrivalLane="0"/>
  <vehicle id="veh_125_1" type="idmCar" route="route_22_1" depart="125" departLane="0" arrivalLane="0"/>
  <vehicle id="veh_126_1" type="idmCar" route="route_21_8" depart="126" departLane="1" arrivalLane="1"/>
  <vehicle id="veh_127_1" type="idmCar" route="route_20_13" depart="127" departLane="2" arrivalLane="1"/>
  <vehicle id="veh_128_1" type="idmCar" route="route_10_19" depart="128" departLane="1" arrivalLane="1"/>
  <vehicle id="veh_130_1" type="idmCar" route="route_11_18" depart="130" departLane="0" arrivalLane="0"/>
  <vehicle id="veh_131_1" type="idmCar" route="route_3_19" depart="131" departLane="3" arrivalLane="1"/>
  <vehicle id="veh_136_1" type="idmCar" route="route_17_18" depart="136" departLane="0" arrivalLane="0"/>
  <vehicle id="veh_136_2" type="idmCar" route="route_15_2" depart="136" departLane="2" arrivalLane="1"/>
  <vehicle id="veh_136_3" type="idmCar" route="route_16_1" depart="136" departLane="1" arrivalLane="0"/>
  <vehicle id="veh_136_4" type="idmCar" route="route_11_12" depart="136" departLane="0" arrivalLane="0"/>
  <vehicle id="veh_136_5" type="idmCar" route="route_10_19" depart="136" departLane="1" arrivalLane="1"/>
  <vehicle id="veh_143_1" type="idmCar" route="route_10_19" depart="143" departLane="1" arrivalLane="1"/>
  <vehicle id="veh_144_1" type="idmCar" route="route_21_8" depart="144" departLane="1" arrivalLane="1"/>
  <vehicle id="veh_144_2" type="idmCar" route="route_22_7" depart="144" departLane="0" arrivalLane="0"/>
  <vehicle id="veh_147_1" type="idmCar" route="route_20_13" depart="147" departLane="2" arrivalLane="1"/>
  <vehicle id="veh_147_2" type="idmCar" route="route_16_1" depart="147" departLane="1" arrivalLane="0"/>
  <vehicle id="veh_147_3" type="idmCar" route="route_15_2" depart="147" departLane="2" arrivalLane="1"/>
  <vehicle id="veh_149_1" type="idmCar" route="route_5_12" depart="149" departLane="1" arrivalLane="0"/>
  <vehicle id="veh_150_1" type="idmCar" route="route_4_13" depart="150" departLane="2" arrivalLane="1"/>
  <vehicle id="veh_152_1" type="idmCar" route="route_17_18" depart="152" departLane="0" arrivalLane="0"/>
  <vehicle id="veh_154_1" type="idmCar" route="route_14_8" depart="154" departLane="3" arrivalLane="1"/>
  <vehicle id="veh_154_2" type="idmCar" route="route_11_12" depart="154" departLane="0" arrivalLane="0"/>
  <vehicle id="veh_155_1" type="idmCar" route="route_21_8" depart="155" departLane="1" arrivalLane="1"/>
  <vehicle id="veh_155_2" type="idmCar" route="route_22_7" depart="155" departLane="0" arrivalLane="0"/>
  <vehicle id="veh_160_1" type="idmCar" route="route_10_19" depart="160" departLane="1" arrivalLane="1"/>
  <vehicle id="veh_161_1" type="idmCar" route="route_22_1" depart="161" departLane="0" arrivalLane="0"/>
  <vehicle id="veh_162_1" type="idmCar" route="route_11_18" depart="162" departLane="0" arrivalLane="0"/>
  <vehicle id="veh_163_1" type="idmCar" route="route_5_12" depart="163" departLane="1" arrivalLane="0"/>
  <vehicle id="veh_163_2" type="idmCar" route="route_20_13" depart="163" departLane="2" arrivalLane="1"/>
  <vehicle id="veh_166_1" type="idmCar" route="route_17_18" depart="166" departLane="0" arrivalLane="0"/>
  <vehicle id="veh_166_2" type="idmCar" route="route_16_1" depart="166" departLane="1" arrivalLane="0"/>
  <vehicle id="veh_166_3" type="idmCar" route="route_15_2" depart="166" departLane="2" arrivalLane="1"/>
  <vehicle id="veh_167_1" type="idmCar" route="route_21_8" depart="167" departLane="1" arrivalLane="1"/>
  <vehicle id="veh_174_1" type="idmCar" route="route_11_18" depart="174" departLane="0" arrivalLane="0"/>
  <vehicle id="veh_174_2" type="idmCar" route="route_21_8" depart="174" departLane="1" arrivalLane="1"/>
  <vehicle id="veh_174_3" type="idmCar" route="route_22_7" depart="174" departLane="0" arrivalLane="0"/>
  <vehicle id="veh_175_1" type="idmCar" route="route_10_19" depart="175" departLane="1" arrivalLane="1"/>
  <vehicle id="veh_177_1" type="idmCar" route="route_20_13" depart="177" departLane="2" arrivalLane="1"/>
  <vehicle id="veh_179_1" type="idmCar" route="route_17_18" depart="179" departLane="0" arrivalLane="0"/>
  <vehicle id="veh_181_1" type="idmCar" route="route_4_13" depart="181" departLane="2" arrivalLane="1"/>
  <vehicle id="veh_181_2" type="idmCar" route="route_16_1" depart="181" departLane="1" arrivalLane="0"/>
  <vehicle id="veh_181_3" type="idmCar" route="route_15_2" depart="181" departLane="2" arrivalLane="1"/>
  <vehicle id="veh_182_1" type="idmCar" route="route_17_18" depart="182" departLane="0" arrivalLane="0"/>
  <vehicle id="veh_186_1" type="idmCar" route="route_11_18" depart="186" departLane="0" arrivalLane="0"/>
  <vehicle id="veh_187_1" type="idmCar" route="route_21_8" depart="187" departLane="1" arrivalLane="1"/>
  <vehicle id="veh_188_1" type="idmCar" route="route_22_7" depart="188" departLane="0" arrivalLane="0"/>
  <vehicle id="veh_188_2" type="idmCar" route="route_10_19" depart="188" departLane="1" arrivalLane="1"/>
  <vehicle id="veh_192_1" type="idmCar" route="route_17_18" depart="192" departLane="0" arrivalLane="0"/>
  <vehicle id="veh_192_2" type="idmCar" route="route_15_2" depart="192" departLane="2" arrivalLane="1"/>
  <vehicle id="veh_193_1" type="idmCar" route="route_4_13" depart="192" departLane="2" arrivalLane="1"/>
  <vehicle id="veh_192_3" type="idmCar" route="route_16_1" depart="193" departLane="1" arrivalLane="0"/>
  <vehicle id="veh_194_1" type="idmCar" route="route_5_12" depart="194" departLane="1" arrivalLane="0"/>
  <vehicle id="veh_195_1" type="idmCar" route="route_17_18" depart="195" departLane="0" arrivalLane="0"/>
  <vehicle id="veh_198_1" type="idmCar" route="route_11_18" depart="198" departLane="0" arrivalLane="0"/>
  <vehicle id="veh_199_1" type="idmCar" route="route_10_19" depart="199" departLane="1" arrivalLane="1"/>
  <vehicle id="veh_201_1" type="idmCar" route="route_9_2" depart="201" departLane="2" arrivalLane="1"/>
  <vehicle id="veh_202_1" type="idmCar" route="route_21_8" depart="202" departLane="1" arrivalLane="1"/>
  <vehicle id="veh_202_2" type="idmCar" route="route_22_7" depart="202" departLane="0" arrivalLane="0"/>
  <vehicle id="veh_205_1" type="idmCar" route="route_17_18" depart="205" departLane="0" arrivalLane="0"/>
  <vehicle id="veh_206_1" type="idmCar" route="route_16_1" depart="206" departLane="1" arrivalLane="0"/>
  <vehicle id="veh_206_2" type="idmCar" route="route_15_2" depart="206" departLane="2" arrivalLane="1"/>
  <vehicle id="veh_209_1" type="idmCar" route="route_5_12" depart="209" departLane="1" arrivalLane="0"/>
  <vehicle id="veh_210_1" type="idmCar" route="route_4_13" depart="210" departLane="2" arrivalLane="1"/>
  <vehicle id="veh_217_1" type="idmCar" route="route_10_19" depart="217" departLane="1" arrivalLane="1"/>
  <vehicle id="veh_217_2" type="idmCar" route="route_11_18" depart="217" departLane="0" arrivalLane="0"/>
  <vehicle id="veh_219_1" type="idmCar" route="route_20_13" depart="219" departLane="2" arrivalLane="1"/>
  <vehicle id="veh_219_2" type="idmCar" route="route_21_8" depart="219" departLane="1" arrivalLane="1"/>
  <vehicle id="veh_221_1" type="idmCar" route="route_17_18" depart="221" departLane="0" arrivalLane="0"/>
  <vehicle id="veh_221_2" type="idmCar" route="route_22_7" depart="221" departLane="0" arrivalLane="0"/>
  <vehicle id="veh_222_1" type="idmCar" route="route_9_2" depart="222" departLane="2" arrivalLane="1"/>
  <vehicle id="veh_224_1" type="idmCar" route="route_17_18" depart="224" departLane="0" arrivalLane="0"/>
  <vehicle id="veh_224_2" type="idmCar" route="route_16_1" depart="224" departLane="1" arrivalLane="0"/>
  <vehicle id="veh_224_3" type="idmCar" route="route_15_2" depart="224" departLane="2" arrivalLane="1"/>
  <vehicle id="veh_226_1" type="idmCar" route="route_5_12" depart="226" departLane="1" arrivalLane="0"/>
  <vehicle id="veh_228_1" type="idmCar" route="route_4_13" depart="228" departLane="2" arrivalLane="1"/>
  <vehicle id="veh_230_1" type="idmCar" route="route_17_18" depart="230" departLane="0" arrivalLane="0"/>
  <vehicle id="veh_231_1" type="idmCar" route="route_10_19" depart="231" departLane="1" arrivalLane="1"/>
  <vehicle id="veh_232_1" type="idmCar" route="route_11_18" depart="232" departLane="0" arrivalLane="0"/>
  <vehicle id="veh_233_1" type="idmCar" route="route_22_1" depart="233" departLane="0" arrivalLane="0"/>
  <vehicle id="veh_233_2" type="idmCar" route="route_21_8" depart="233" departLane="1" arrivalLane="1"/>
  <vehicle id="veh_234_1" type="idmCar" route="route_17_18" depart="234" departLane="0" arrivalLane="0"/>
  <vehicle id="veh_234_2" type="idmCar" route="route_20_13" depart="234" departLane="2" arrivalLane="1"/>
  <vehicle id="veh_236_1" type="idmCar" route="route_5_12" depart="236" departLane="1" arrivalLane="0"/>
  <vehicle id="veh_237_1" type="idmCar" route="route_16_1" depart="237" departLane="1" arrivalLane="0"/>
  <vehicle id="veh_238_1" type="idmCar" route="route_4_13" depart="238" departLane="2" arrivalLane="1"/>
  <vehicle id="veh_239_1" type="idmCar" route="route_15_2" depart="239" departLane="2" arrivalLane="1"/>
  <vehicle id="veh_241_1" type="idmCar" route="route_16_1" depart="241" departLane="1" arrivalLane="0"/>
  <vehicle id="veh_241_2" type="idmCar" route="route_14_8" depart="241" departLane="3" arrivalLane="1"/>
  <vehicle id="veh_241_3" type="idmCar" route="route_17_18" depart="241" departLane="0" arrivalLane="0"/>
  <vehicle id="veh_242_1" type="idmCar" route="route_11_18" depart="242" departLane="0" arrivalLane="0"/>
  <vehicle id="veh_244_1" type="idmCar" route="route_10_19" depart="244" departLane="1" arrivalLane="1"/>
  <vehicle id="veh_245_1" type="idmCar" route="route_21_8" depart="245" departLane="1" arrivalLane="1"/>
  <vehicle id="veh_245_2" type="idmCar" route="route_22_7" depart="245" departLane="0" arrivalLane="0"/>
  <vehicle id="veh_247_1" type="idmCar" route="route_20_13" depart="247" departLane="2" arrivalLane="1"/>
  <vehicle id="veh_250_1" type="idmCar" route="route_16_1" depart="250" departLane="1" arrivalLane="0"/>
  <vehicle id="veh_250_2" type="idmCar" route="route_5_12" depart="250" departLane="1" arrivalLane="0"/>
  <vehicle id="veh_250_3" type="idmCar" route="route_4_13" depart="250" departLane="2" arrivalLane="1"/>
  <vehicle id="veh_250_4" type="idmCar" route="route_15_2" depart="250" departLane="2" arrivalLane="1"/>
  <vehicle id="veh_253_1" type="idmCar" route="route_17_18" depart="253" departLane="0" arrivalLane="0"/>
  <vehicle id="veh_253_2" type="idmCar" route="route_3_19" depart="253" departLane="3" arrivalLane="1"/>
  <vehicle id="veh_253_3" type="idmCar" route="route_14_8" depart="253" departLane="3" arrivalLane="1"/>
  <vehicle id="veh_253_4" type="idmCar" route="route_15_2" depart="253" departLane="2" arrivalLane="1"/>
  <vehicle id="veh_259_1" type="idmCar" route="route_9_2" depart="259" departLane="2" arrivalLane="1"/>
  <vehicle id="veh_259_2" type="idmCar" route="route_10_19" depart="259" departLane="1" arrivalLane="1"/>
  <vehicle id="veh_259_3" type="idmCar" route="route_11_18" depart="259" departLane="0" arrivalLane="0"/>
  <vehicle id="veh_262_1" type="idmCar" route="route_21_8" depart="262" departLane="1" arrivalLane="1"/>
  <vehicle id="veh_262_2" type="idmCar" route="route_22_7" depart="262" departLane="0" arrivalLane="0"/>
  <vehicle id="veh_262_3" type="idmCar" route="route_20_13" depart="262" departLane="2" arrivalLane="1"/>
  <vehicle id="veh_265_1" type="idmCar" route="route_5_12" depart="265" departLane="1" arrivalLane="0"/>
  <vehicle id="veh_266_1" type="idmCar" route="route_17_18" depart="265" departLane="0" arrivalLane="0"/>
  <vehicle id="veh_265_2" type="idmCar" route="route_16_1" depart="266" departLane="1" arrivalLane="0"/>
  <vehicle id="veh_267_1" type="idmCar" route="route_15_2" depart="267" departLane="2" arrivalLane="1"/>
  <vehicle id="veh_269_1" type="idmCar" route="route_4_13" depart="269" departLane="2" arrivalLane="1"/>
  <vehicle id="veh_269_2" type="idmCar" route="route_15_2" depart="269" departLane="2" arrivalLane="1"/>
  <vehicle id="veh_270_1" type="idmCar" route="route_17_18" depart="270" departLane="0" arrivalLane="0"/>
  <vehicle id="veh_272_1" type="idmCar" route="route_11_12" depart="272" departLane="0" arrivalLane="0"/>
  <vehicle id="veh_275_1" type="idmCar" route="route_10_19" depart="275" departLane="1" arrivalLane="1"/>
  <vehicle id="veh_275_2" type="idmCar" route="route_21_8" depart="275" departLane="1" arrivalLane="1"/>
  <vehicle id="veh_275_3" type="idmCar" route="route_22_7" depart="275" departLane="0" arrivalLane="0"/>
  <vehicle id="veh_276_1" type="idmCar" route="route_20_13" depart="276" departLane="2" arrivalLane="1"/>
  <vehicle id="veh_280_1" type="idmCar" route="route_5_12" depart="280" departLane="1" arrivalLane="0"/>
  <vehicle id="veh_280_2" type="idmCar" route="route_4_13" depart="280" departLane="2" arrivalLane="1"/>
  <vehicle id="veh_282_1" type="idmCar" route="route_17_18" depart="282" departLane="0" arrivalLane="0"/>
  <vehicle id="veh_282_2" type="idmCar" route="route_16_1" depart="282" departLane="1" arrivalLane="0"/>
  <vehicle id="veh_282_3" type="idmCar" route="route_15_2" depart="282" departLane="2" arrivalLane="1"/>
  <vehicle id="veh_283_1" type="idmCar" route="route_6_7" depart="283" departLane="0" arrivalLane="0"/>
  <vehicle id="veh_284_1" type="idmCar" route="route_14_8" depart="284" departLane="3" arrivalLane="1"/>
  <vehicle id="veh_288_1" type="idmCar" route="route_11_18" depart="288" departLane="0" arrivalLane="0"/>
  <vehicle id="veh_290_1" type="idmCar" route="route_10_19" depart="290" departLane="1" arrivalLane="1"/>
  <vehicle id="veh_290_2" type="idmCar" route="route_22_7" depart="290" departLane="0" arrivalLane="0"/>
  <vehicle id="veh_292_1" type="idmCar" route="route_21_8" depart="292" departLane="1" arrivalLane="1"/>
  <vehicle id="veh_294_1" type="idmCar" route="route_20_13" depart="294" departLane="2" arrivalLane="1"/>
  <vehicle id="veh_294_2" type="idmCar" route="route_17_18" depart="294" departLane="0" arrivalLane="0"/>
  <vehicle id="veh_295_1" type="idmCar" route="route_4_13" depart="295" departLane="2" arrivalLane="1"/>
  <vehicle id="veh_295_2" type="idmCar" route="route_16_1" depart="295" departLane="1" arrivalLane="0"/>
  <vehicle id="veh_295_3" type="idmCar" route="route_15_2" depart="295" departLane="2" arrivalLane="1"/>
  <vehicle id="veh_296_1" type="idmCar" route="route_5_12" depart="296" departLane="1" arrivalLane="0"/>
  <vehicle id="veh_299_1" type="idmCar" route="route_17_18" depart="299" departLane="0" arrivalLane="0"/>
  <vehicle id="veh_301_1" type="idmCar" route="route_11_18" depart="301" departLane="0" arrivalLane="0"/>
  <vehicle id="veh_303_1" type="idmCar" route="route_10_19" depart="303" departLane="1" arrivalLane="1"/>
  <vehicle id="veh_303_2" type="idmCar" route="route_21_8" depart="303" departLane="1" arrivalLane="1"/>
  <vehicle id="veh_303_3" type="idmCar" route="route_22_7" depart="303" departLane="0" arrivalLane="0"/>
  <vehicle id="veh_306_1" type="idmCar" route="route_4_13" depart="306" departLane="2" arrivalLane="1"/>
  <vehicle id="veh_308_1" type="idmCar" route="route_5_12" depart="308" departLane="1" arrivalLane="0"/>
  <vehicle id="veh_309_1" type="idmCar" route="route_17_18" depart="309" departLane="0" arrivalLane="0"/>
  <vehicle id="veh_310_1" type="idmCar" route="route_16_1" depart="310" departLane="1" arrivalLane="0"/>
  <vehicle id="veh_310_2" type="idmCar" route="route_15_2" depart="310" departLane="2" arrivalLane="1"/>
  <vehicle id="veh_316_1" type="idmCar" route="route_20_13" depart="316" departLane="2" arrivalLane="1"/>
  <vehicle id="veh_317_1" type="idmCar" route="route_21_8" depart="317" departLane="1" arrivalLane="1"/>
  <vehicle id="veh_317_2" type="idmCar" route="route_22_1" depart="317" departLane="0" arrivalLane="0"/>
  <vehicle id="veh_319_1" type="idmCar" route="route_10_19" depart="319" departLane="1" arrivalLane="1"/>
  <vehicle id="veh_319_2" type="idmCar" route="route_11_18" depart="319" departLane="0" arrivalLane="0"/>
  <vehicle id="veh_321_1" type="idmCar" route="route_9_2" depart="321" departLane="2" arrivalLane="1"/>
  <vehicle id="veh_323_1" type="idmCar" route="route_11_18" depart="323" departLane="0" arrivalLane="0"/>
  <vehicle id="veh_323_2" type="idmCar" route="route_15_2" depart="323" departLane="2" arrivalLane="1"/>
  <vehicle id="veh_323_3" type="idmCar" route="route_17_18" depart="323" departLane="0" arrivalLane="0"/>
  <vehicle id="veh_325_1" type="idmCar" route="route_5_12" depart="325" departLane="1" arrivalLane="0"/>
  <vehicle id="veh_330_1" type="idmCar" route="route_22_1" depart="330" departLane="0" arrivalLane="0"/>
  <vehicle id="veh_332_1" type="idmCar" route="route_21_8" depart="332" departLane="1" arrivalLane="1"/>
  <vehicle id="veh_332_2" type="idmCar" route="route_20_13" depart="332" departLane="2" arrivalLane="1"/>
  <vehicle id="veh_334_1" type="idmCar" route="route_17_18" depart="334" departLane="0" arrivalLane="0"/>
  <vehicle id="veh_334_2" type="idmCar" route="route_15_2" depart="334" departLane="2" arrivalLane="1"/>
  <vehicle id="veh_335_1" type="idmCar" route="route_16_1" depart="335" departLane="1" arrivalLane="0"/>
  <vehicle id="veh_337_1" type="idmCar" route="route_14_8" depart="337" departLane="3" arrivalLane="1"/>
  <vehicle id="veh_339_1" type="idmCar" route="route_3_19" depart="339" departLane="3" arrivalLane="1"/>
  <vehicle id="veh_341_1" type="idmCar" route="route_4_13" depart="341" departLane="2" arrivalLane="1"/>
  <vehicle id="veh_342_1" type="idmCar" route="route_5_12" depart="342" departLane="1" arrivalLane="0"/>
  <vehicle id="veh_344_1" type="idmCar" route="route_17_18" depart="344" departLane="0" arrivalLane="0"/>
  <vehicle id="veh_345_1" type="idmCar" route="route_10_19" depart="345" departLane="1" arrivalLane="1"/>
  <vehicle id="veh_345_2" type="idmCar" route="route_22_7" depart="345" departLane="0" arrivalLane="0"/>