<?xml version="1.0" ?>
<routes>

    <vType id="idmCar" vClass="passenger" carFollowModel="IDM" maxSpeed="10.00" />
    <!-- New routes-->
    <route id="route_6_7" edges="e_6_5_4_3 e_7_8"></route>
    <route id="route_3_19" edges="e_6_5_4_3 e_18_19"></route>
    <route id="route_22_7" edges="e_20_21_22 e_7_8"></route>
    <route id="route_22_1" edges="e_20_21_22 e_1_2"></route>
    <route id="route_22_2" edges="e_20_21_22 e_1_2"></route>
    <route id="route_21_8" edges="e_20_21_22 e_7_8"></route>
    <route id="route_5_14" edges="e_6_5_4_3 e_13_14"></route> 
    <route id="route_4_14" edges="e_6_5_4_3 e_13_14"></route> 
    <route id="route_16_1" edges="e_15_16_17 e_1_2"></route>
    <route id="route_16_2" edges="e_15_16_17 e_1_2"></route>
    <route id="route_15_2" edges="e_15_16_17 e_1_2"></route>
    <route id="route_15_8" edges="e_15_16_17 e_7_8"></route> 
    <route id="route_17_1" edges="e_15_16_17 e_1_2"></route>
    <route id="route_17_2" edges="e_15_16_17 e_1_2"></route>
    <route id="route_17_18" edges="e_15_16_17 e_18_19"></route> 
    <route id="route_3_18" edges="e_6_5_4_3 e_18_19"></route>
    <route id="route_3_14" edges="e_6_5_4_3 e_13_14"></route>
    <route id="route_11_18" edges="e_9_10_11_12 e_18_19"></route>
    <route id="route_10_13" edges="e_9_10_11_12 e_13_14"></route>
    <route id="route_10_19" edges="e_9_10_11_12 e_18_19"></route>
    <route id="route_9_2" edges="e_9_10_11_12 e_1_2"></route>
    <route id="route_9_1" edges="e_9_10_11_12 e_1_2"></route>
    <route id="route_9_19" edges="e_9_10_11_12 e_18_19"></route>
    <route id="route_10_18" edges="e_9_10_11_12 e_18_19"></route>
    <route id="route_12_18" edges="e_9_10_11_12 e_18_19"></route>
    <route id="route_6_13" edges="e_6_5_4_3 e_13_14"></route>
    <route id="route_5_13" edges="e_6_5_4_3 e_13_14"></route>
    <route id="route_16_8" edges="e_15_16_17 e_7_8"></route>  
    <route id="route_20_13" edges="e_20_21_22 e_13_14"></route>
    <route id="route_20_14" edges="e_20_21_22 e_13_14"></route>
    <route id="route_19_14" edges="e_18_19 e_13_14"></route>
    <route id="route_12_13" edges="e_9_10_11_12 e_13_14"></route>
    <route id="route_12_14" edges="e_9_10_11_12 e_13_14"></route>
    <route id="route_11_19" edges="e_9_10_11_12 e_18_19"></route>
    
  <vehicle id="veh_1_1" type="idmCar" route="route_6_7" depart="1" departLane="0" arrivalLane="0"/>
  <vehicle id="veh_1_2" type="idmCar" route="route_22_7" depart="1" departLane="0" arrivalLane="0"/>
  <vehicle id="veh_1_3" type="idmCar" route="route_21_8" depart="1" departLane="1" arrivalLane="1"/>
  <vehicle id="veh_2_1" type="idmCar" route="route_3_19" depart="2" departLane="3" arrivalLane="1"/>
  <vehicle id="veh_3_1" type="idmCar" route="route_4_14" depart="3" departLane="2" arrivalLane="1"/>
  <vehicle id="veh_3_2" type="idmCar" route="route_16_2" depart="3" departLane="1" arrivalLane="1"/>
  <vehicle id="veh_3_3" type="idmCar" route="route_17_1" depart="3" departLane="0" arrivalLane="0"/>
  <vehicle id="veh_3_4" type="idmCar" route="route_15_8" depart="3" departLane="2" arrivalLane="1"/>
  <vehicle id="veh_166_2" type="idmCar" route="route_6_7" depart="3" departLane="0" arrivalLane="0"/>
  <vehicle id="veh_283_2" type="idmCar" route="route_21_8" depart="5" departLane="1" arrivalLane="1"/>
  <vehicle id="veh_3_5" type="idmCar" route="route_6_7" depart="7" departLane="0" arrivalLane="0"/>
  <vehicle id="veh_5_1" type="idmCar" route="route_11_18" depart="7" departLane="1" arrivalLane="0"/>
  <vehicle id="veh_7_1" type="idmCar" route="route_10_19" depart="7" departLane="2" arrivalLane="1"/>
  <vehicle id="veh_7_2" type="idmCar" route="route_9_2" depart="8" departLane="3" arrivalLane="1"/>
  <vehicle id="veh_7_3" type="idmCar" route="route_6_7" depart="12" departLane="0" arrivalLane="0"/>
  <vehicle id="veh_8_1" type="idmCar" route="route_22_7" depart="14" departLane="0" arrivalLane="0"/>
  <vehicle id="veh_12_1" type="idmCar" route="route_21_8" depart="14" departLane="1" arrivalLane="1"/>
  <vehicle id="veh_14_1" type="idmCar" route="route_21_8" depart="17" departLane="1" arrivalLane="1"/>
  <vehicle id="veh_14_2" type="idmCar" route="route_4_14" depart="17" departLane="2" arrivalLane="1"/>
  <vehicle id="veh_17_2" type="idmCar" route="route_17_1" depart="17" departLane="0" arrivalLane="0"/>
  <vehicle id="veh_1010_1" type="idmCar" route="route_4_14" depart="17" departLane="2" arrivalLane="1"/>
  <vehicle id="veh_17_3" type="idmCar" route="route_15_8" depart="18" departLane="2" arrivalLane="1"/>
  <vehicle id="veh_17_1" type="idmCar" route="route_3_18" depart="19" departLane="3" arrivalLane="0"/>
  <vehicle id="veh_17_4" type="idmCar" route="route_4_14" depart="23" departLane="2" arrivalLane="1"/>
  <vehicle id="veh_1365_1" type="idmCar" route="route_10_19" depart="23" departLane="2" arrivalLane="1"/>
  <vehicle id="veh_18_1" type="idmCar" route="route_11_18" depart="26" departLane="1" arrivalLane="0"/>
  <vehicle id="veh_1614_1" type="idmCar" route="route_17_1" depart="27" departLane="0" arrivalLane="0"/>
  <vehicle id="veh_1614_2" type="idmCar" route="route_16_2" depart="27" departLane="1" arrivalLane="1"/>
  <vehicle id="veh_19_1" type="idmCar" route="route_10_19" depart="29" departLane="2" arrivalLane="1"/>
  <vehicle id="veh_23_1" type="idmCar" route="route_22_7" depart="30" departLane="0" arrivalLane="0"/>
  <vehicle id="veh_23_2" type="idmCar" route="route_21_8" depart="30" departLane="1" arrivalLane="1"/>
  <vehicle id="veh_1915_1" type="idmCar" route="route_15_8" depart="32" departLane="2" arrivalLane="1"/>
  <vehicle id="veh_26_1" type="idmCar" route="route_17_1" depart="33" departLane="0" arrivalLane="0"/>
  <vehicle id="veh_27_1" type="idmCar" route="route_22_1" depart="33" departLane="0" arrivalLane="0"/>
  <vehicle id="veh_27_2" type="idmCar" route="route_16_2" depart="35" departLane="1" arrivalLane="1"/>
  <vehicle id="veh_29_1" type="idmCar" route="route_5_13" depart="35" departLane="1" arrivalLane="0"/>
  <vehicle id="veh_2153_1" type="idmCar" route="route_15_8" depart="36" departLane="2" arrivalLane="1"/>
  <vehicle id="veh_30_1" type="idmCar" route="route_16_2" depart="37" departLane="1" arrivalLane="1"/>
  <vehicle id="veh_30_2" type="idmCar" route="route_4_14" depart="37" departLane="2" arrivalLane="1"/>
  <vehicle id="veh_2277_1" type="idmCar" route="route_22_7" depart="38" departLane="0" arrivalLane="0"/>
  <vehicle id="veh_2277_2" type="idmCar" route="route_21_8" depart="38" departLane="1" arrivalLane="1"/>
  <vehicle id="veh_32_1" type="idmCar" route="route_6_7" depart="39" departLane="0" arrivalLane="0"/>
  <vehicle id="veh_33_1" type="idmCar" route="route_15_8" depart="40" departLane="2" arrivalLane="1"/>
  <vehicle id="veh_33_2" type="idmCar" route="route_11_18" depart="41" departLane="1" arrivalLane="0"/>
  <vehicle id="veh_35_1" type="idmCar" route="route_20_13" depart="42" departLane="2" arrivalLane="0"/>
  <vehicle id="veh_35_2" type="idmCar" route="route_21_8" depart="44" departLane="1" arrivalLane="1"/>
  <vehicle id="veh_36_1" type="idmCar" route="route_22_7" depart="44" departLane="0" arrivalLane="0"/>
  <vehicle id="veh_37_1" type="idmCar" route="route_12_13" depart="45" departLane="0" arrivalLane="0"/>
  <vehicle id="veh_37_2" type="idmCar" route="route_10_19" depart="45" departLane="2" arrivalLane="1"/>
  <vehicle id="veh_38_1" type="idmCar" route="route_16_2" depart="48" departLane="1" arrivalLane="1"/>
  <vehicle id="veh_38_2" type="idmCar" route="route_4_14" depart="48" departLane="2" arrivalLane="1"/>
  <vehicle id="veh_39_1" type="idmCar" route="route_17_1" depart="51" departLane="0" arrivalLane="0"/>
  <vehicle id="veh_40_1" type="idmCar" route="route_5_14" depart="53" departLane="1" arrivalLane="1"/>
  <vehicle id="veh_41_1" type="idmCar" route="route_20_14" depart="54" departLane="2" arrivalLane="1"/>
  <vehicle id="veh_42_1" type="idmCar" route="route_12_13" depart="57" departLane="0" arrivalLane="0"/>
  <vehicle id="veh_44_1" type="idmCar" route="route_22_7" depart="61" departLane="0" arrivalLane="0"/>
  <vehicle id="veh_44_2" type="idmCar" route="route_21_8" depart="61" departLane="1" arrivalLane="1"/>
  <vehicle id="veh_45_1" type="idmCar" route="route_11_18" depart="61" departLane="1" arrivalLane="0"/>
  <vehicle id="veh_45_2" type="idmCar" route="route_10_19" depart="62" departLane="2" arrivalLane="1"/>
  <vehicle id="veh_48_1" type="idmCar" route="route_17_1" depart="65" departLane="0" arrivalLane="0"/>
  <vehicle id="veh_48_2" type="idmCar" route="route_16_2" depart="65" departLane="1" arrivalLane="1"/>
  <vehicle id="veh_51_1" type="idmCar" route="route_15_8" depart="65" departLane="2" arrivalLane="1"/>
  <vehicle id="veh_53_1" type="idmCar" route="route_6_7" depart="66" departLane="0" arrivalLane="0"/>
  <vehicle id="veh_54_1" type="idmCar" route="route_4_14" depart="66" departLane="2" arrivalLane="1"/>
  <vehicle id="veh_57_1" type="idmCar" route="route_6_7" depart="69" departLane="0" arrivalLane="0"/>
  <vehicle id="veh_61_1" type="idmCar" route="route_12_13" depart="69" departLane="0" arrivalLane="0"/>
  <vehicle id="veh_61_2" type="idmCar" route="route_6_7" depart="72" departLane="0" arrivalLane="0"/>
  <vehicle id="veh_61_3" type="idmCar" route="route_20_14" depart="73" departLane="2" arrivalLane="1"/>
  <vehicle id="veh_62_1" type="idmCar" route="route_11_18" depart="75" departLane="1" arrivalLane="0"/>
  <vehicle id="veh_65_1" type="idmCar" route="route_10_19" depart="75" departLane="2" arrivalLane="1"/>
  <vehicle id="veh_65_2" type="idmCar" route="route_22_7" depart="76" departLane="0" arrivalLane="0"/>
  <vehicle id="veh_65_3" type="idmCar" route="route_21_8" depart="76" departLane="1" arrivalLane="1"/>
  <vehicle id="veh_66_1" type="idmCar" route="route_17_1" depart="81" departLane="0" arrivalLane="0"/>
  <vehicle id="veh_66_2" type="idmCar" route="route_16_2" depart="81" departLane="1" arrivalLane="1"/>
  <vehicle id="veh_69_1" type="idmCar" route="route_6_7" depart="82" departLane="0" arrivalLane="0"/>
  <vehicle id="veh_69_2" type="idmCar" route="route_4_14" depart="82" departLane="2" arrivalLane="1"/>
  <vehicle id="veh_72_1" type="idmCar" route="route_22_1" depart="86" departLane="0" arrivalLane="0"/>
  <vehicle id="veh_73_1" type="idmCar" route="route_21_8" depart="86" departLane="1" arrivalLane="1"/>
  <vehicle id="veh_75_1" type="idmCar" route="route_12_13" depart="87" departLane="0" arrivalLane="0"/>
  <vehicle id="veh_75_2" type="idmCar" route="route_11_18" depart="87" departLane="1" arrivalLane="0"/>
  <vehicle id="veh_76_1" type="idmCar" route="route_20_14" depart="90" departLane="2" arrivalLane="1"/>
  <vehicle id="veh_76_2" type="idmCar" route="route_10_19" depart="92" departLane="2" arrivalLane="1"/>
  <vehicle id="veh_81_1" type="idmCar" route="route_4_14" depart="93" departLane="2" arrivalLane="1"/>
  <vehicle id="veh_81_2" type="idmCar" route="route_5_13" depart="93" departLane="1" arrivalLane="0"/>
  <vehicle id="veh_82_1" type="idmCar" route="route_11_18" depart="94" departLane="1" arrivalLane="0"/>
  <vehicle id="veh_82_2" type="idmCar" route="route_12_13" depart="96" departLane="0" arrivalLane="0"/>
  <vehicle id="veh_86_1" type="idmCar" route="route_17_1" depart="99" departLane="0" arrivalLane="0"/>
  <vehicle id="veh_86_2" type="idmCar" route="route_16_2" depart="99" departLane="1" arrivalLane="1"/>
  <vehicle id="veh_87_1" type="idmCar" route="route_10_19" depart="103" departLane="2" arrivalLane="1"/>
  <vehicle id="veh_87_2" type="idmCar" route="route_11_18" depart="104" departLane="1" arrivalLane="0"/>
  <vehicle id="veh_90_1" type="idmCar" route="route_22_7" depart="104" departLane="0" arrivalLane="0"/>
  <vehicle id="veh_92_1" type="idmCar" route="route_21_8" depart="104" departLane="1" arrivalLane="1"/>
  <vehicle id="veh_93_1" type="idmCar" route="route_20_13" depart="104" departLane="2" arrivalLane="0"/>
  <vehicle id="veh_93_2" type="idmCar" route="route_4_14" depart="110" departLane="2" arrivalLane="1"/>
  <vehicle id="veh_94_1" type="idmCar" route="route_15_8" depart="116" departLane="2" arrivalLane="1"/>
  <vehicle id="veh_99_1" type="idmCar" route="route_20_14" depart="117" departLane="2" arrivalLane="1"/>
  <vehicle id="veh_96_1" type="idmCar" route="route_12_13" depart="118" departLane="0" arrivalLane="0"/>
  <vehicle id="veh_99_2" type="idmCar" route="route_10_19" depart="121" departLane="2" arrivalLane="1"/>
  <vehicle id="veh_103_1" type="idmCar" route="route_11_18" depart="121" departLane="1" arrivalLane="0"/>
  <vehicle id="veh_104_1" type="idmCar" route="route_21_8" depart="121" departLane="1" arrivalLane="1"/>
  <vehicle id="veh_104_2" type="idmCar" route="route_22_7" depart="121" departLane="0" arrivalLane="0"/>
  <vehicle id="veh_104_3" type="idmCar" route="route_5_13" depart="126" departLane="1" arrivalLane="0"/>
  <vehicle id="veh_104_4" type="idmCar" route="route_4_14" depart="126" departLane="2" arrivalLane="1"/>
  <vehicle id="veh_110_1" type="idmCar" route="route_20_14" depart="133" departLane="2" arrivalLane="1"/>
  <vehicle id="veh_116_1" type="idmCar" route="route_22_7" depart="135" departLane="0" arrivalLane="0"/>
  <vehicle id="veh_117_1" type="idmCar" route="route_21_8" depart="135" departLane="1" arrivalLane="1"/>
  <vehicle id="veh_118_1" type="idmCar" route="route_12_13" depart="137" departLane="0" arrivalLane="0"/>
  <vehicle id="veh_121_1" type="idmCar" route="route_16_2" depart="137" departLane="1" arrivalLane="1"/>
  <vehicle id="veh_121_2" type="idmCar" route="route_11_18" depart="138" departLane="1" arrivalLane="0"/>
  <vehicle id="veh_121_3" type="idmCar" route="route_17_1" depart="138" departLane="0" arrivalLane="0"/>
  <vehicle id="veh_121_4" type="idmCar" route="route_6_7" depart="139" departLane="0" arrivalLane="0"/>
  <vehicle id="veh_126_1" type="idmCar" route="route_10_19" depart="140" departLane="2" arrivalLane="1"/>
  <vehicle id="veh_126_2" type="idmCar" route="route_20_13" depart="142" departLane="2" arrivalLane="0"/>
  <vehicle id="veh_133_1" type="idmCar" route="route_6_7" depart="148" departLane="0" arrivalLane="0"/>
  <vehicle id="veh_135_1" type="idmCar" route="route_16_2" depart="149" departLane="1" arrivalLane="1"/>
  <vehicle id="veh_135_2" type="idmCar" route="route_5_13" depart="150" departLane="1" arrivalLane="0"/>
  <vehicle id="veh_137_1" type="idmCar" route="route_4_14" depart="151" departLane="2" arrivalLane="1"/>
  <vehicle id="veh_137_2" type="idmCar" route="route_17_1" depart="152" departLane="0" arrivalLane="0"/>
  <vehicle id="veh_138_1" type="idmCar" route="route_15_8" depart="155" departLane="2" arrivalLane="1"/>
  <vehicle id="veh_138_2" type="idmCar" route="route_22_7" depart="160" departLane="0" arrivalLane="0"/>
  <vehicle id="veh_139_1" type="idmCar" route="route_21_8" depart="160" departLane="1" arrivalLane="1"/>
  <vehicle id="veh_140_1" type="idmCar" route="route_3_18" depart="160" departLane="3" arrivalLane="0"/>
  <vehicle id="veh_142_1" type="idmCar" route="route_12_13" depart="161" departLane="0" arrivalLane="0"/>
  <vehicle id="veh_148_1" type="idmCar" route="route_11_18" depart="161" departLane="1" arrivalLane="0"/>
  <vehicle id="veh_149_1" type="idmCar" route="route_10_19" depart="161" departLane="2" arrivalLane="1"/>
  <vehicle id="veh_150_1" type="idmCar" route="route_4_14" depart="162" departLane="2" arrivalLane="1"/>
  <vehicle id="veh_151_1" type="idmCar" route="route_5_13" depart="164" departLane="1" arrivalLane="0"/>
  <vehicle id="veh_152_1" type="idmCar" route="route_6_7" depart="164" departLane="0" arrivalLane="0"/>
  <vehicle id="veh_155_1" type="idmCar" route="route_17_1" depart="166" departLane="0" arrivalLane="0"/>
  <vehicle id="veh_160_1" type="idmCar" route="route_4_14" depart="166" departLane="2" arrivalLane="1"/>
  <vehicle id="veh_160_2" type="idmCar" route="route_6_7" depart="169" departLane="0" arrivalLane="0"/>
  <vehicle id="veh_160_3" type="idmCar" route="route_15_8" depart="171" departLane="2" arrivalLane="1"/>
  <vehicle id="veh_161_1" type="idmCar" route="route_12_13" depart="172" departLane="0" arrivalLane="0"/>
  <vehicle id="veh_161_2" type="idmCar" route="route_22_7" depart="174" departLane="0" arrivalLane="0"/>
  <vehicle id="veh_161_3" type="idmCar" route="route_21_8" depart="174" departLane="1" arrivalLane="1"/>
  <vehicle id="veh_162_1" type="idmCar" route="route_12_13" depart="177" departLane="0" arrivalLane="0"/>
  <vehicle id="veh_164_1" type="idmCar" route="route_10_19" depart="177" departLane="2" arrivalLane="1"/>
  <vehicle id="veh_164_2" type="idmCar" route="route_11_18" depart="177" departLane="1" arrivalLane="0"/>
  <vehicle id="veh_166_1" type="idmCar" route="route_9_2" depart="177" departLane="3" arrivalLane="1"/>
  <vehicle id="veh_169_1" type="idmCar" route="route_4_14" depart="182" departLane="2" arrivalLane="1"/>
  <vehicle id="veh_171_1" type="idmCar" route="route_16_2" depart="182" departLane="1" arrivalLane="1"/>
  <vehicle id="veh_172_1" type="idmCar" route="route_22_1" depart="184" departLane="0" arrivalLane="0"/>
  <vehicle id="veh_174_1" type="idmCar" route="route_6_7" depart="184" departLane="0" arrivalLane="0"/>
  <vehicle id="veh_174_2" type="idmCar" route="route_17_1" depart="184" departLane="0" arrivalLane="0"/>
  <vehicle id="veh_177_1" type="idmCar" route="route_17_18" depart="187" departLane="0" arrivalLane="0"/>
  <vehicle id="veh_177_2" type="idmCar" route="route_15_8" depart="189" departLane="2" arrivalLane="1"/>
  <vehicle id="veh_177_3" type="idmCar" route="route_22_7" depart="191" departLane="0" arrivalLane="0"/>
  <vehicle id="veh_177_4" type="idmCar" route="route_21_8" depart="191" departLane="1" arrivalLane="1"/>
  <vehicle id="veh_182_1" type="idmCar" route="route_4_14" depart="192" departLane="2" arrivalLane="1"/>
  <vehicle id="veh_182_2" type="idmCar" route="route_12_13" depart="193" departLane="0" arrivalLane="0"/>
  <vehicle id="veh_184_1" type="idmCar" route="route_11_18" depart="193" departLane="1" arrivalLane="0"/>
  <vehicle id="veh_184_2" type="idmCar" route="route_10_19" depart="194" departLane="2" arrivalLane="1"/>
  <vehicle id="veh_184_3" type="idmCar" route="route_15_8" depart="198" departLane="2" arrivalLane="1"/>
  <vehicle id="veh_187_1" type="idmCar" route="route_17_1" depart="200" departLane="0" arrivalLane="0"/>
  <vehicle id="veh_189_1" type="idmCar" route="route_10_19" depart="201" departLane="2" arrivalLane="1"/>
  <vehicle id="veh_191_1" type="idmCar" route="route_16_2" depart="202" departLane="1" arrivalLane="1"/>
  <vehicle id="veh_192_1" type="idmCar" route="route_11_18" depart="203" departLane="1" arrivalLane="0"/>
  <vehicle id="veh_191_2" type="idmCar" route="route_6_7" depart="204" departLane="0" arrivalLane="0"/>
  <vehicle id="veh_193_1" type="idmCar" route="route_20_13" depart="204" departLane="2" arrivalLane="0"/>
  <vehicle id="veh_193_2" type="idmCar" route="route_21_8" depart="205" departLane="1" arrivalLane="1"/>
  <vehicle id="veh_194_1" type="idmCar" route="route_22_7" depart="205" departLane="0" arrivalLane="0"/>
  <vehicle id="veh_198_1" type="idmCar" route="route_12_13" depart="206" departLane="0" arrivalLane="0"/>
  <vehicle id="veh_200_1" type="idmCar" route="route_4_14" depart="208" departLane="2" arrivalLane="1"/>
  <vehicle id="veh_201_1" type="idmCar" route="route_17_1" depart="210" departLane="0" arrivalLane="0"/>
  <vehicle id="veh_202_1" type="idmCar" route="route_15_8" depart="210" departLane="2" arrivalLane="1"/>
  <vehicle id="veh_203_1" type="idmCar" route="route_11_18" depart="213" departLane="1" arrivalLane="0"/>
  <vehicle id="veh_204_1" type="idmCar" route="route_10_19" depart="214" departLane="2" arrivalLane="1"/>
  <vehicle id="veh_204_2" type="idmCar" route="route_22_7" depart="215" departLane="0" arrivalLane="0"/>
  <vehicle id="veh_205_1" type="idmCar" route="route_21_8" depart="215" departLane="1" arrivalLane="1"/>
  <vehicle id="veh_205_2" type="idmCar" route="route_5_13" depart="220" departLane="1" arrivalLane="0"/>
  <vehicle id="veh_206_1" type="idmCar" route="route_17_1" depart="224" departLane="0" arrivalLane="0"/>
  <vehicle id="veh_208_1" type="idmCar" route="route_15_8" depart="224" departLane="2" arrivalLane="1"/>
  <vehicle id="veh_210_1" type="idmCar" route="route_12_13" depart="227" departLane="0" arrivalLane="0"/>
  <vehicle id="veh_210_2" type="idmCar" route="route_11_18" depart="229" departLane="1" arrivalLane="0"/>
  <vehicle id="veh_213_1" type="idmCar" route="route_10_19" depart="229" departLane="2" arrivalLane="1"/>
  <vehicle id="veh_214_1" type="idmCar" route="route_22_7" depart="231" departLane="0" arrivalLane="0"/>
  <vehicle id="veh_215_1" type="idmCar" route="route_21_8" depart="231" departLane="1" arrivalLane="1"/>
  <vehicle id="veh_215_2" type="idmCar" route="route_4_14" depart="234" departLane="2" arrivalLane="1"/>
  <vehicle id="veh_220_1" type="idmCar" route="route_16_2" depart="238" departLane="1" arrivalLane="1"/>
  <vehicle id="veh_224_1" type="idmCar" route="route_15_8" depart="238" departLane="2" arrivalLane="1"/>
  <vehicle id="veh_224_2" type="idmCar" route="route_17_1" depart="241" departLane="0" arrivalLane="0"/>
  <vehicle id="veh_227_1" type="idmCar" route="route_10_19" depart="241" departLane="2" arrivalLane="1"/>
  <vehicle id="veh_229_1" type="idmCar" route="route_11_18" depart="242" departLane="1" arrivalLane="0"/>
  <vehicle id="veh_229_2" type="idmCar" route="route_22_7" depart="243" departLane="0" arrivalLane="0"/>
  <vehicle id="veh_231_1" type="idmCar" route="route_21_8" depart="243" departLane="1" arrivalLane="1"/>
  <vehicle id="veh_231_2" type="idmCar" route="route_4_14" depart="246" departLane="2" arrivalLane="1"/>
  <vehicle id="veh_234_1" type="idmCar" route="route_17_18" depart="247" departLane="0" arrivalLane="0"/>
  <vehicle id="veh_238_1" type="idmCar" route="route_16_2" depart="248" departLane="1" arrivalLane="1"/>
  <vehicle id="veh_238_2" type="idmCar" route="route_5_13" depart="249" departLane="1" arrivalLane="0"/>
  <vehicle id="veh_241_1" type="idmCar" route="route_3_18" depart="249" departLane="3" arrivalLane="0"/>
  <vehicle id="veh_241_2" type="idmCar" route="route_15_8" depart="253" departLane="2" arrivalLane="1"/>
  <vehicle id="veh_242_1" type="idmCar" route="route_11_18" depart="256" departLane="1" arrivalLane="0"/>
  <vehicle id="veh_243_1" type="idmCar" route="route_10_19" depart="256" departLane="2" arrivalLane="1"/>
  <vehicle id="veh_243_2" type="idmCar" route="route_22_7" depart="256" departLane="0" arrivalLane="0"/>
  <vehicle id="veh_246_1" type="idmCar" route="route_21_8" depart="259" departLane="1" arrivalLane="1"/>
  <vehicle id="veh_247_1" type="idmCar" route="route_4_14" depart="261" departLane="2" arrivalLane="1"/>
  <vehicle id="veh_248_1" type="idmCar" route="route_5_13" depart="261" departLane="1" arrivalLane="0"/>
  <vehicle id="veh_249_1" type="idmCar" route="route_16_2" depart="263" departLane="1" arrivalLane="1"/>
  <vehicle id="veh_249_2" type="idmCar" route="route_17_1" depart="264" departLane="0" arrivalLane="0"/>
  <vehicle id="veh_253_1" type="idmCar" route="route_15_8" depart="265" departLane="2" arrivalLane="1"/>
  <vehicle id="veh_256_1" type="idmCar" route="route_21_8" depart="268" departLane="1" arrivalLane="1"/>
  <vehicle id="veh_256_2" type="idmCar" route="route_22_7" depart="268" departLane="0" arrivalLane="0"/>
  <vehicle id="veh_256_3" type="idmCar" route="route_10_19" depart="269" departLane="2" arrivalLane="1"/>
  <vehicle id="veh_259_1" type="idmCar" route="route_11_18" depart="271" departLane="1" arrivalLane="0"/>
  <vehicle id="veh_261_1" type="idmCar" route="route_3_14" depart="274" departLane="3" arrivalLane="1"/>
  <vehicle id="veh_261_2" type="idmCar" route="route_4_14" depart="275" departLane="2" arrivalLane="1"/>
  <vehicle id="veh_263_1" type="idmCar" route="route_5_13" depart="275" departLane="1" arrivalLane="0"/>
  <vehicle id="veh_264_1" type="idmCar" route="route_6_13" depart="277" departLane="0" arrivalLane="0"/>
  <vehicle id="veh_265_1" type="idmCar" route="route_17_1" depart="277" departLane="0" arrivalLane="0"/>
  <vehicle id="veh_268_1" type="idmCar" route="route_16_2" depart="277" departLane="1" arrivalLane="1"/>
  <vehicle id="veh_268_2" type="idmCar" route="route_15_8" depart="281" departLane="2" arrivalLane="1"/>
  <vehicle id="veh_269_1" type="idmCar" route="route_10_19" depart="282" departLane="2" arrivalLane="1"/>
  <vehicle id="veh_271_1" type="idmCar" route="route_11_18" depart="282" departLane="1" arrivalLane="0"/>
  <vehicle id="veh_274_1" type="idmCar" route="route_22_7" depart="283" departLane="0" arrivalLane="0"/>
  <vehicle id="veh_275_1" type="idmCar" route="route_21_8" depart="283" departLane="1" arrivalLane="1"/>
  <vehicle id="veh_275_2" type="idmCar" route="route_12_13" depart="286" departLane="0" arrivalLane="0"/>
  <vehicle id="veh_277_1" type="idmCar" route="route_16_2" depart="288" departLane="1" arrivalLane="1"/>
  <vehicle id="veh_277_2" type="idmCar" route="route_15_8" depart="289" departLane="2" arrivalLane="1"/>
  <vehicle id="veh_277_3" type="idmCar" route="route_4_14" depart="289" departLane="2" arrivalLane="1"/>
  <vehicle id="veh_281_1" type="idmCar" route="route_5_13" depart="292" departLane="1" arrivalLane="0"/>
  <vehicle id="veh_282_1" type="idmCar" route="route_22_7" depart="293" departLane="0" arrivalLane="0"/>
  <vehicle id="veh_282_2" type="idmCar" route="route_16_2" depart="294" departLane="1" arrivalLane="1"/>
  <vehicle id="veh_283_1" type="idmCar" route="route_12_13" depart="301" departLane="0" arrivalLane="0"/>
  <vehicle id="veh_286_1" type="idmCar" route="route_10_19" depart="301" departLane="2" arrivalLane="1"/>
  <vehicle id="veh_288_1" type="idmCar" route="route_21_8" depart="301" departLane="1" arrivalLane="1"/>
  <vehicle id="veh_289_1" type="idmCar" route="route_22_1" depart="301" departLane="0" arrivalLane="0"/>
  <vehicle id="veh_289_2" type="idmCar" route="route_11_18" depart="303" departLane="1" arrivalLane="0"/>
  <vehicle id="veh_292_1" type="idmCar" route="route_6_7" depart="304" departLane="0" arrivalLane="0"/>
  <vehicle id="veh_293_1" type="idmCar" route="route_4_14" depart="304" departLane="2" arrivalLane="1"/>
  <vehicle id="veh_294_1" type="idmCar" route="route_6_7" depart="306" departLane="0" arrivalLane="0"/>
  <vehicle id="veh_301_1" type="idmCar" route="route_22_7" depart="310" departLane="0" arrivalLane="0"/>
  <vehicle id="veh_301_2" type="idmCar" route="route_21_8" depart="310" departLane="1" arrivalLane="1"/>
  <vehicle id="veh_301_3" type="idmCar" route="route_15_8" depart="313" departLane="2" arrivalLane="1"/>
  <vehicle id="veh_301_4" type="idmCar" route="route_12_13" depart="313" departLane="0" arrivalLane="0"/>
  <vehicle id="veh_303_1" type="idmCar" route="route_4_14" depart="318" departLane="2" arrivalLane="1"/>
  <vehicle id="veh_304_1" type="idmCar" route="route_5_13" depart="319" departLane="1" arrivalLane="0"/>
  <vehicle id="veh_304_2" type="idmCar" route="route_15_8" depart="321" departLane="2" arrivalLane="1"/>
  <vehicle id="veh_306_1" type="idmCar" route="route_22_1" depart="322" departLane="0" arrivalLane="0"/>
  <vehicle id="veh_310_1" type="idmCar" route="route_11_18" depart="324" departLane="1" arrivalLane="0"/>
  <vehicle id="veh_310_2" type="idmCar" route="route_10_19" depart="324" departLane="2" arrivalLane="1"/>
  <vehicle id="veh_313_1" type="idmCar" route="route_12_14" depart="326" departLane="0" arrivalLane="1"/>
  <vehicle id="veh_313_2" type="idmCar" route="route_21_8" depart="327" departLane="1" arrivalLane="1"/>
  <vehicle id="veh_318_1" type="idmCar" route="route_17_1" depart="331" departLane="0" arrivalLane="0"/>
  <vehicle id="veh_319_1" type="idmCar" route="route_16_2" depart="331" departLane="1" arrivalLane="1"/>
  <vehicle id="veh_321_1" type="idmCar" route="route_15_8" depart="331" departLane="2" arrivalLane="1"/>
  <vehicle id="veh_322_1" type="idmCar" route="route_6_7" depart="338" departLane="0" arrivalLane="0"/>
  <vehicle id="veh_324_1" type="idmCar" route="route_22_7" depart="338" departLane="0" arrivalLane="0"/>
  <vehicle id="veh_324_2" type="idmCar" route="route_4_14" depart="338" departLane="2" arrivalLane="1"/>
  <vehicle id="veh_326_1" type="idmCar" route="route_21_8" depart="341" departLane="1" arrivalLane="1"/>
  <vehicle id="veh_327_1" type="idmCar" route="route_11_18" depart="342" departLane="1" arrivalLane="0"/>
  <vehicle id="veh_331_1" type="idmCar" route="route_10_19" depart="342" departLane="2" arrivalLane="1"/>
  <vehicle id="veh_331_2" type="idmCar" route="route_9_1" depart="343" departLane="3" arrivalLane="0"/>
  <vehicle id="veh_331_3" type="idmCar" route="route_16_2" depart="347" departLane="1" arrivalLane="1"/>
  <vehicle id="veh_338_1" type="idmCar" route="route_15_8" depart="347" departLane="2" arrivalLane="1"/>
  <vehicle id="veh_338_2" type="idmCar" route="route_5_13" depart="348" departLane="1" arrivalLane="0"/>
  <vehicle id="veh_338_3" type="idmCar" route="route_4_14" depart="350" departLane="2" arrivalLane="1"/>
  <vehicle id="veh_341_1" type="idmCar" route="route_22_7" depart="355" departLane="0" arrivalLane="0"/>
  <vehicle id="veh_342_1" type="idmCar" route="route_21_8" depart="355" departLane="1" arrivalLane="1"/>
  <vehicle id="veh_342_2" type="idmCar" route="route_20_14" depart="356" departLane="2" arrivalLane="1"/>
  <vehicle id="veh_343_1" type="idmCar" route="route_5_13" depart="359" departLane="1" arrivalLane="0"/>
  <vehicle id="veh_347_1" type="idmCar" route="route_4_14" depart="359" departLane="2" arrivalLane="1"/>
  <vehicle id="veh_347_2" type="idmCar" route="route_9_2" depart="359" departLane="3" arrivalLane="1"/>
  <vehicle id="veh_348_1" type="idmCar" route="route_11_18" depart="361" departLane="1" arrivalLane="0"/>
  <vehicle id="veh_350_1" type="idmCar" route="route_10_19" depart="361" departLane="2" arrivalLane="1"/>
  <vehicle id="veh_355_1" type="idmCar" route="route_15_8" depart="367" departLane="2" arrivalLane="1"/>