<?xml version="1.0" ?>
<routes>

    <vType id="idmCar" vClass="passenger" carFollowModel="IDM" maxSpeed="10.00" />
    <!-- New routes-->
    <route id="route_6_7" edges="e_6_5_4_3 e_7_8"></route>
    <route id="route_3_19" edges="e_6_5_4_3 e_18_19"></route>
    <route id="route_22_7" edges="e_20_21_22 e_7_8"></route>
    <route id="route_22_1" edges="e_20_21_22 e_1_2"></route>
    <route id="route_22_2" edges="e_20_21_22 e_1_2"></route>
    <route id="route_21_8" edges="e_20_21_22 e_7_8"></route>
    <route id="route_5_14" edges="e_6_5_4_3 e_13_14"></route> 
    <route id="route_4_14" edges="e_6_5_4_3 e_13_14"></route> 
    <route id="route_16_1" edges="e_15_16_17 e_1_2"></route>
    <route id="route_16_2" edges="e_15_16_17 e_1_2"></route>
    <route id="route_15_2" edges="e_15_16_17 e_1_2"></route>
    <route id="route_15_8" edges="e_15_16_17 e_7_8"></route> 
    <route id="route_17_1" edges="e_15_16_17 e_1_2"></route>
    <route id="route_17_2" edges="e_15_16_17 e_1_2"></route>
    <route id="route_17_18" edges="e_15_16_17 e_18_19"></route> 
    <route id="route_3_18" edges="e_6_5_4_3 e_18_19"></route>
    <route id="route_3_14" edges="e_6_5_4_3 e_13_14"></route>
    <route id="route_11_18" edges="e_9_10_11_12 e_18_19"></route>
    <route id="route_10_13" edges="e_9_10_11_12 e_13_14"></route>
    <route id="route_10_19" edges="e_9_10_11_12 e_18_19"></route>
    <route id="route_9_2" edges="e_9_10_11_12 e_1_2"></route>
    <route id="route_9_1" edges="e_9_10_11_12 e_1_2"></route>
    <route id="route_9_19" edges="e_9_10_11_12 e_18_19"></route>
    <route id="route_10_18" edges="e_9_10_11_12 e_18_19"></route>
    <route id="route_12_18" edges="e_9_10_11_12 e_18_19"></route>
    <route id="route_6_13" edges="e_6_5_4_3 e_13_14"></route>
    <route id="route_5_13" edges="e_6_5_4_3 e_13_14"></route>
    <route id="route_16_8" edges="e_15_16_17 e_7_8"></route>  
    <route id="route_20_13" edges="e_20_21_22 e_13_14"></route>
    <route id="route_20_14" edges="e_20_21_22 e_13_14"></route>
    <route id="route_19_14" edges="e_18_19 e_13_14"></route>
    <route id="route_12_13" edges="e_9_10_11_12 e_13_14"></route>
    <route id="route_12_14" edges="e_9_10_11_12 e_13_14"></route>
    <route id="route_11_19" edges="e_9_10_11_12 e_18_19"></route>
 

  <vehicle id="veh_2_1" type="idmCar" route="route_17_1" depart="2" departLane="0" arrivalLane="0"/>
  <vehicle id="veh_2_2" type="idmCar" route="route_15_8" depart="2" departLane="2" arrivalLane="1"/>
  <vehicle id="veh_4_1" type="idmCar" route="route_16_2" depart="4" departLane="1" arrivalLane="1"/>
  <vehicle id="veh_6_1" type="idmCar" route="route_15_8" depart="6" departLane="2" arrivalLane="1"/>
  <vehicle id="veh_7_1" type="idmCar" route="route_11_18" depart="7" departLane="1" arrivalLane="0"/>
  <vehicle id="veh_7_2" type="idmCar" route="route_10_19" depart="7" departLane="2" arrivalLane="1"/>
  <vehicle id="veh_8_1" type="idmCar" route="route_22_7" depart="8" departLane="0" arrivalLane="0"/>
  <vehicle id="veh_10_1" type="idmCar" route="route_21_8" depart="10" departLane="1" arrivalLane="1"/>
  <vehicle id="veh_12_1" type="idmCar" route="route_22_7" depart="12" departLane="0" arrivalLane="0"/>
  <vehicle id="veh_14_1" type="idmCar" route="route_21_8" depart="14" departLane="1" arrivalLane="1"/>
  <vehicle id="veh_14_2" type="idmCar" route="route_20_14" depart="14" departLane="2" arrivalLane="1"/>
  <vehicle id="veh_16_1" type="idmCar" route="route_17_1" depart="16" departLane="0" arrivalLane="0"/>
  <vehicle id="veh_18_1" type="idmCar" route="route_16_2" depart="18" departLane="1" arrivalLane="1"/>
  <vehicle id="veh_19_1" type="idmCar" route="route_10_19" depart="19" departLane="2" arrivalLane="1"/>
  <vehicle id="veh_20_1" type="idmCar" route="route_6_7" depart="19" departLane="0" arrivalLane="0"/>
  <vehicle id="veh_19_2" type="idmCar" route="route_15_8" depart="20" departLane="2" arrivalLane="1"/>
  <vehicle id="veh_22_1" type="idmCar" route="route_12_13" depart="22" departLane="0" arrivalLane="0"/>
  <vehicle id="veh_25_1" type="idmCar" route="route_22_7" depart="25" departLane="0" arrivalLane="0"/>
  <vehicle id="veh_25_2" type="idmCar" route="route_21_8" depart="25" departLane="1" arrivalLane="1"/>
  <vehicle id="veh_27_1" type="idmCar" route="route_22_7" depart="27" departLane="0" arrivalLane="0"/>
  <vehicle id="veh_29_1" type="idmCar" route="route_17_1" depart="29" departLane="0" arrivalLane="0"/>
  <vehicle id="veh_29_2" type="idmCar" route="route_16_2" depart="29" departLane="1" arrivalLane="1"/>
  <vehicle id="veh_31_1" type="idmCar" route="route_5_14" depart="31" departLane="1" arrivalLane="1"/>
  <vehicle id="veh_31_2" type="idmCar" route="route_17_18" depart="31" departLane="0" arrivalLane="0"/>
  <vehicle id="veh_32_1" type="idmCar" route="route_15_8" depart="32" departLane="2" arrivalLane="1"/>
  <vehicle id="veh_36_1" type="idmCar" route="route_22_7" depart="36" departLane="0" arrivalLane="0"/>
  <vehicle id="veh_36_2" type="idmCar" route="route_21_8" depart="36" departLane="1" arrivalLane="1"/>
  <vehicle id="veh_37_1" type="idmCar" route="route_20_14" depart="37" departLane="2" arrivalLane="1"/>
  <vehicle id="veh_37_2" type="idmCar" route="route_10_19" depart="37" departLane="2" arrivalLane="1"/>
  <vehicle id="veh_38_1" type="idmCar" route="route_11_18" depart="38" departLane="1" arrivalLane="0"/>
  <vehicle id="veh_39_1" type="idmCar" route="route_17_18" depart="39" departLane="0" arrivalLane="0"/>
  <vehicle id="veh_46_1" type="idmCar" route="route_16_2" depart="46" departLane="1" arrivalLane="1"/>
  <vehicle id="veh_47_1" type="idmCar" route="route_15_8" depart="47" departLane="2" arrivalLane="1"/>
  <vehicle id="veh_47_2" type="idmCar" route="route_17_1" depart="47" departLane="0" arrivalLane="0"/>
  <vehicle id="veh_48_1" type="idmCar" route="route_17_1" depart="48" departLane="0" arrivalLane="0"/>
  <vehicle id="veh_49_1" type="idmCar" route="route_15_8" depart="49" departLane="2" arrivalLane="1"/>
  <vehicle id="veh_50_1" type="idmCar" route="route_17_18" depart="50" departLane="0" arrivalLane="0"/>
  <vehicle id="veh_51_1" type="idmCar" route="route_5_13" depart="51" departLane="1" arrivalLane="0"/>
  <vehicle id="veh_53_1" type="idmCar" route="route_4_14" depart="53" departLane="2" arrivalLane="1"/>
  <vehicle id="veh_53_2" type="idmCar" route="route_22_1" depart="53" departLane="0" arrivalLane="0"/>
  <vehicle id="veh_54_1" type="idmCar" route="route_5_13" depart="54" departLane="1" arrivalLane="0"/>
  <vehicle id="veh_55_1" type="idmCar" route="route_20_14" depart="55" departLane="2" arrivalLane="1"/>
  <vehicle id="veh_57_1" type="idmCar" route="route_21_8" depart="57" departLane="1" arrivalLane="1"/>
  <vehicle id="veh_59_1" type="idmCar" route="route_10_19" depart="59" departLane="2" arrivalLane="1"/>
  <vehicle id="veh_62_1" type="idmCar" route="route_11_18" depart="62" departLane="1" arrivalLane="0"/>
  <vehicle id="veh_63_1" type="idmCar" route="route_4_14" depart="63" departLane="2" arrivalLane="1"/>
  <vehicle id="veh_66_1" type="idmCar" route="route_5_13" depart="66" departLane="1" arrivalLane="0"/>
  <vehicle id="veh_69_1" type="idmCar" route="route_17_1" depart="69" departLane="0" arrivalLane="0"/>
  <vehicle id="veh_69_2" type="idmCar" route="route_15_8" depart="69" departLane="2" arrivalLane="1"/>
  <vehicle id="veh_74_1" type="idmCar" route="route_20_14" depart="74" departLane="2" arrivalLane="1"/>
  <vehicle id="veh_74_2" type="idmCar" route="route_11_18" depart="74" departLane="1" arrivalLane="0"/>
  <vehicle id="veh_77_1" type="idmCar" route="route_10_19" depart="77" departLane="2" arrivalLane="1"/>
  <vehicle id="veh_77_2" type="idmCar" route="route_12_13" depart="77" departLane="0" arrivalLane="0"/>
  <vehicle id="veh_77_3" type="idmCar" route="route_9_1" depart="77" departLane="3" arrivalLane="0"/>
  <vehicle id="veh_77_4" type="idmCar" route="route_22_7" depart="77" departLane="0" arrivalLane="0"/>
  <vehicle id="veh_77_5" type="idmCar" route="route_21_8" depart="77" departLane="1" arrivalLane="1"/>
  <vehicle id="veh_79_1" type="idmCar" route="route_4_14" depart="79" departLane="2" arrivalLane="1"/>
  <vehicle id="veh_83_1" type="idmCar" route="route_6_7" depart="83" departLane="0" arrivalLane="0"/>
  <vehicle id="veh_83_2" type="idmCar" route="route_3_18" depart="83" departLane="3" arrivalLane="0"/>
  <vehicle id="veh_84_1" type="idmCar" route="route_22_1" depart="84" departLane="0" arrivalLane="0"/>
  <vehicle id="veh_86_1" type="idmCar" route="route_15_8" depart="86" departLane="2" arrivalLane="1"/>
  <vehicle id="veh_89_1" type="idmCar" route="route_17_18" depart="89" departLane="0" arrivalLane="0"/>
  <vehicle id="veh_91_1" type="idmCar" route="route_21_8" depart="90" departLane="1" arrivalLane="1"/>
  <vehicle id="veh_90_1" type="idmCar" route="route_12_13" depart="91" departLane="0" arrivalLane="0"/>
  <vehicle id="veh_93_1" type="idmCar" route="route_16_2" depart="93" departLane="1" arrivalLane="1"/>
  <vehicle id="veh_94_1" type="idmCar" route="route_17_1" depart="94" departLane="0" arrivalLane="0"/>
  <vehicle id="veh_100_1" type="idmCar" route="route_20_14" depart="100" departLane="2" arrivalLane="1"/>
  <vehicle id="veh_100_2" type="idmCar" route="route_21_8" depart="100" departLane="1" arrivalLane="1"/>
  <vehicle id="veh_100_3" type="idmCar" route="route_22_7" depart="100" departLane="0" arrivalLane="0"/>
  <vehicle id="veh_102_1" type="idmCar" route="route_10_19" depart="102" departLane="2" arrivalLane="1"/>
  <vehicle id="veh_104_1" type="idmCar" route="route_11_18" depart="104" departLane="1" arrivalLane="0"/>
  <vehicle id="veh_106_1" type="idmCar" route="route_20_14" depart="104" departLane="2" arrivalLane="1"/>
  <vehicle id="veh_104_2" type="idmCar" route="route_12_13" depart="106" departLane="0" arrivalLane="0"/>
  <vehicle id="veh_108_1" type="idmCar" route="route_3_19" depart="108" departLane="3" arrivalLane="1"/>
  <vehicle id="veh_109_1" type="idmCar" route="route_17_1" depart="109" departLane="0" arrivalLane="0"/>
  <vehicle id="veh_109_2" type="idmCar" route="route_16_2" depart="109" departLane="1" arrivalLane="1"/>
  <vehicle id="veh_111_1" type="idmCar" route="route_15_8" depart="111" departLane="2" arrivalLane="1"/>
  <vehicle id="veh_115_1" type="idmCar" route="route_15_8" depart="115" departLane="2" arrivalLane="1"/>
  <vehicle id="veh_115_2" type="idmCar" route="route_5_13" depart="115" departLane="1" arrivalLane="0"/>
  <vehicle id="veh_115_3" type="idmCar" route="route_4_14" depart="115" departLane="2" arrivalLane="1"/>
  <vehicle id="veh_119_1" type="idmCar" route="route_6_7" depart="119" departLane="0" arrivalLane="0"/>
  <vehicle id="veh_119_2" type="idmCar" route="route_21_8" depart="119" departLane="1" arrivalLane="1"/>
  <vehicle id="veh_122_1" type="idmCar" route="route_22_7" depart="121" departLane="0" arrivalLane="0"/>
  <vehicle id="veh_121_1" type="idmCar" route="route_10_19" depart="122" departLane="2" arrivalLane="1"/>
  <vehicle id="veh_124_1" type="idmCar" route="route_11_18" depart="124" departLane="1" arrivalLane="0"/>
  <vehicle id="veh_126_1" type="idmCar" route="route_12_13" depart="126" departLane="0" arrivalLane="0"/>
  <vehicle id="veh_127_1" type="idmCar" route="route_5_13" depart="127" departLane="1" arrivalLane="0"/>
  <vehicle id="veh_127_2" type="idmCar" route="route_20_14" depart="127" departLane="2" arrivalLane="1"/>
  <vehicle id="veh_128_1" type="idmCar" route="route_6_7" depart="128" departLane="0" arrivalLane="0"/>
  <vehicle id="veh_130_1" type="idmCar" route="route_4_14" depart="130" departLane="2" arrivalLane="1"/>
  <vehicle id="veh_131_1" type="idmCar" route="route_6_7" depart="131" departLane="0" arrivalLane="0"/>
  <vehicle id="veh_132_1" type="idmCar" route="route_17_1" depart="132" departLane="0" arrivalLane="0"/>
  <vehicle id="veh_132_2" type="idmCar" route="route_16_2" depart="132" departLane="1" arrivalLane="1"/>
  <vehicle id="veh_136_1" type="idmCar" route="route_11_18" depart="136" departLane="1" arrivalLane="0"/>
  <vehicle id="veh_136_2" type="idmCar" route="route_10_19" depart="136" departLane="2" arrivalLane="1"/>
  <vehicle id="veh_137_1" type="idmCar" route="route_21_8" depart="137" departLane="1" arrivalLane="1"/>
  <vehicle id="veh_138_1" type="idmCar" route="route_22_7" depart="138" departLane="0" arrivalLane="0"/>
  <vehicle id="veh_140_1" type="idmCar" route="route_20_14" depart="140" departLane="2" arrivalLane="1"/>
  <vehicle id="veh_140_2" type="idmCar" route="route_16_2" depart="140" departLane="1" arrivalLane="1"/>
  <vehicle id="veh_141_1" type="idmCar" route="route_6_7" depart="141" departLane="0" arrivalLane="0"/>
  <vehicle id="veh_143_1" type="idmCar" route="route_16_2" depart="143" departLane="1" arrivalLane="1"/>
  <vehicle id="veh_145_1" type="idmCar" route="route_15_8" depart="145" departLane="2" arrivalLane="1"/>
  <vehicle id="veh_149_1" type="idmCar" route="route_4_14" depart="149" departLane="2" arrivalLane="1"/>
  <vehicle id="veh_152_1" type="idmCar" route="route_9_2" depart="152" departLane="3" arrivalLane="1"/>
  <vehicle id="veh_153_1" type="idmCar" route="route_10_19" depart="153" departLane="2" arrivalLane="1"/>
  <vehicle id="veh_153_2" type="idmCar" route="route_11_18" depart="153" departLane="1" arrivalLane="0"/>
  <vehicle id="veh_154_1" type="idmCar" route="route_12_14" depart="154" departLane="0" arrivalLane="1"/>
  <vehicle id="veh_154_2" type="idmCar" route="route_21_8" depart="154" departLane="1" arrivalLane="1"/>
  <vehicle id="veh_154_3" type="idmCar" route="route_22_7" depart="154" departLane="0" arrivalLane="0"/>
  <vehicle id="veh_158_1" type="idmCar" route="route_20_14" depart="158" departLane="2" arrivalLane="1"/>
  <vehicle id="veh_163_1" type="idmCar" route="route_16_2" depart="163" departLane="1" arrivalLane="1"/>
  <vehicle id="veh_163_2" type="idmCar" route="route_17_1" depart="163" departLane="0" arrivalLane="0"/>
  <vehicle id="veh_163_3" type="idmCar" route="route_15_8" depart="163" departLane="2" arrivalLane="1"/>
  <vehicle id="veh_167_1" type="idmCar" route="route_5_13" depart="167" departLane="1" arrivalLane="0"/>
  <vehicle id="veh_167_2" type="idmCar" route="route_4_14" depart="167" departLane="2" arrivalLane="1"/>
  <vehicle id="veh_170_1" type="idmCar" route="route_9_2" depart="170" departLane="3" arrivalLane="1"/>
  <vehicle id="veh_170_2" type="idmCar" route="route_22_7" depart="170" departLane="0" arrivalLane="0"/>
  <vehicle id="veh_170_3" type="idmCar" route="route_21_8" depart="170" departLane="1" arrivalLane="1"/>
  <vehicle id="veh_171_1" type="idmCar" route="route_10_19" depart="171" departLane="2" arrivalLane="1"/>
  <vehicle id="veh_173_1" type="idmCar" route="route_11_18" depart="173" departLane="1" arrivalLane="0"/>
  <vehicle id="veh_174_1" type="idmCar" route="route_6_7" depart="174" departLane="0" arrivalLane="0"/>
  <vehicle id="veh_174_2" type="idmCar" route="route_5_13" depart="174" departLane="1" arrivalLane="0"/>
  <vehicle id="veh_177_1" type="idmCar" route="route_20_14" depart="177" departLane="2" arrivalLane="1"/>
  <vehicle id="veh_181_2" type="idmCar" route="route_22_7" depart="178" departLane="0" arrivalLane="0"/>
  <vehicle id="veh_178_1" type="idmCar" route="route_17_1" depart="181" departLane="0" arrivalLane="0"/>
  <vehicle id="veh_181_1" type="idmCar" route="route_16_2" depart="181" departLane="1" arrivalLane="1"/>
  <vehicle id="veh_185_1" type="idmCar" route="route_11_18" depart="185" departLane="1" arrivalLane="0"/>
  <vehicle id="veh_186_1" type="idmCar" route="route_10_19" depart="186" departLane="2" arrivalLane="1"/>
  <vehicle id="veh_189_1" type="idmCar" route="route_4_14" depart="189" departLane="2" arrivalLane="1"/>
  <vehicle id="veh_189_2" type="idmCar" route="route_21_8" depart="189" departLane="1" arrivalLane="1"/>
  <vehicle id="veh_191_1" type="idmCar" route="route_22_7" depart="191" departLane="0" arrivalLane="0"/>
  <vehicle id="veh_195_1" type="idmCar" route="route_16_2" depart="195" departLane="1" arrivalLane="1"/>
  <vehicle id="veh_195_2" type="idmCar" route="route_15_8" depart="195" departLane="2" arrivalLane="1"/>
  <vehicle id="veh_196_1" type="idmCar" route="route_17_1" depart="196" departLane="0" arrivalLane="0"/>
  <vehicle id="veh_198_1" type="idmCar" route="route_11_18" depart="198" departLane="1" arrivalLane="0"/>
  <vehicle id="veh_199_1" type="idmCar" route="route_10_19" depart="199" departLane="2" arrivalLane="1"/>
  <vehicle id="veh_200_1" type="idmCar" route="route_4_14" depart="200" departLane="2" arrivalLane="1"/>
  <vehicle id="veh_202_1" type="idmCar" route="route_5_13" depart="202" departLane="1" arrivalLane="0"/>
  <vehicle id="veh_202_2" type="idmCar" route="route_22_7" depart="202" departLane="0" arrivalLane="0"/>
  <vehicle id="veh_202_3" type="idmCar" route="route_21_8" depart="202" departLane="1" arrivalLane="1"/>
  <vehicle id="veh_206_1" type="idmCar" route="route_12_13" depart="206" departLane="0" arrivalLane="0"/>
  <vehicle id="veh_208_1" type="idmCar" route="route_6_7" depart="207" departLane="0" arrivalLane="0"/>
  <vehicle id="veh_207_1" type="idmCar" route="route_17_1" depart="208" departLane="0" arrivalLane="0"/>
  <vehicle id="veh_210_1" type="idmCar" route="route_12_13" depart="210" departLane="0" arrivalLane="0"/>
  <vehicle id="veh_210_2" type="idmCar" route="route_10_19" depart="210" departLane="2" arrivalLane="1"/>
  <vehicle id="veh_210_3" type="idmCar" route="route_11_18" depart="210" departLane="1" arrivalLane="0"/>
  <vehicle id="veh_211_1" type="idmCar" route="route_22_7" depart="211" departLane="0" arrivalLane="0"/>
  <vehicle id="veh_211_2" type="idmCar" route="route_21_8" depart="211" departLane="1" arrivalLane="1"/>
  <vehicle id="veh_217_1" type="idmCar" route="route_17_18" depart="215" departLane="0" arrivalLane="0"/>
  <vehicle id="veh_215_1" type="idmCar" route="route_6_7" depart="217" departLane="0" arrivalLane="0"/>
  <vehicle id="veh_219_1" type="idmCar" route="route_16_2" depart="219" departLane="1" arrivalLane="1"/>
  <vehicle id="veh_219_2" type="idmCar" route="route_15_8" depart="219" departLane="2" arrivalLane="1"/>
  <vehicle id="veh_220_1" type="idmCar" route="route_12_13" depart="220" departLane="0" arrivalLane="0"/>
  <vehicle id="veh_223_1" type="idmCar" route="route_22_7" depart="223" departLane="0" arrivalLane="0"/>
  <vehicle id="veh_223_2" type="idmCar" route="route_11_18" depart="223" departLane="1" arrivalLane="0"/>
  <vehicle id="veh_225_1" type="idmCar" route="route_10_19" depart="225" departLane="2" arrivalLane="1"/>
  <vehicle id="veh_225_2" type="idmCar" route="route_21_8" depart="225" departLane="1" arrivalLane="1"/>
  <vehicle id="veh_226_1" type="idmCar" route="route_11_18" depart="226" departLane="1" arrivalLane="0"/>
  <vehicle id="veh_227_1" type="idmCar" route="route_5_13" depart="227" departLane="1" arrivalLane="0"/>
  <vehicle id="veh_233_1" type="idmCar" route="route_17_1" depart="233" departLane="0" arrivalLane="0"/>
  <vehicle id="veh_233_2" type="idmCar" route="route_4_14" depart="233" departLane="2" arrivalLane="1"/>
  <vehicle id="veh_233_3" type="idmCar" route="route_16_2" depart="233" departLane="1" arrivalLane="1"/>
  <vehicle id="veh_241_1" type="idmCar" route="route_15_8" depart="241" departLane="2" arrivalLane="1"/>
  <vehicle id="veh_242_1" type="idmCar" route="route_22_7" depart="242" departLane="0" arrivalLane="0"/>
  <vehicle id="veh_242_2" type="idmCar" route="route_21_8" depart="242" departLane="1" arrivalLane="1"/>
  <vehicle id="veh_244_1" type="idmCar" route="route_12_13" depart="244" departLane="0" arrivalLane="0"/>
  <vehicle id="veh_246_1" type="idmCar" route="route_10_19" depart="246" departLane="2" arrivalLane="1"/>
  <vehicle id="veh_247_1" type="idmCar" route="route_11_18" depart="247" departLane="1" arrivalLane="0"/>
  <vehicle id="veh_250_1" type="idmCar" route="route_5_13" depart="250" departLane="1" arrivalLane="0"/>
  <vehicle id="veh_250_2" type="idmCar" route="route_4_14" depart="250" departLane="2" arrivalLane="1"/>
  <vehicle id="veh_250_3" type="idmCar" route="route_17_1" depart="250" departLane="0" arrivalLane="0"/>
  <vehicle id="veh_250_4" type="idmCar" route="route_16_2" depart="250" departLane="1" arrivalLane="1"/>
  <vehicle id="veh_251_1" type="idmCar" route="route_17_18" depart="251" departLane="0" arrivalLane="0"/>
  <vehicle id="veh_254_1" type="idmCar" route="route_16_8" depart="254" departLane="1" arrivalLane="1"/>
  <vehicle id="veh_256_1" type="idmCar" route="route_22_7" depart="256" departLane="0" arrivalLane="0"/>
  <vehicle id="veh_256_2" type="idmCar" route="route_21_8" depart="256" departLane="1" arrivalLane="1"/>
  <vehicle id="veh_258_1" type="idmCar" route="route_17_18" depart="258" departLane="0" arrivalLane="0"/>
  <vehicle id="veh_260_1" type="idmCar" route="route_12_13" depart="260" departLane="0" arrivalLane="0"/>
  <vehicle id="veh_260_2" type="idmCar" route="route_11_18" depart="260" departLane="1" arrivalLane="0"/>
  <vehicle id="veh_260_3" type="idmCar" route="route_10_19" depart="260" departLane="2" arrivalLane="1"/>
  <vehicle id="veh_263_1" type="idmCar" route="route_11_18" depart="263" departLane="1" arrivalLane="0"/>
  <vehicle id="veh_264_1" type="idmCar" route="route_6_7" depart="264" departLane="0" arrivalLane="0"/>
  <vehicle id="veh_264_2" type="idmCar" route="route_5_13" depart="264" departLane="1" arrivalLane="0"/>
  <vehicle id="veh_264_3" type="idmCar" route="route_4_14" depart="264" departLane="2" arrivalLane="1"/>
  <vehicle id="veh_267_1" type="idmCar" route="route_17_1" depart="267" departLane="0" arrivalLane="0"/>
  <vehicle id="veh_267_2" type="idmCar" route="route_16_2" depart="267" departLane="1" arrivalLane="1"/>
  <vehicle id="veh_268_1" type="idmCar" route="route_6_7" depart="268" departLane="0" arrivalLane="0"/>
  <vehicle id="veh_270_1" type="idmCar" route="route_15_8" depart="270" departLane="2" arrivalLane="1"/>
  <vehicle id="veh_271_1" type="idmCar" route="route_17_18" depart="271" departLane="0" arrivalLane="0"/>
  <vehicle id="veh_272_1" type="idmCar" route="route_21_8" depart="272" departLane="1" arrivalLane="1"/>
  <vehicle id="veh_273_1" type="idmCar" route="route_20_14" depart="273" departLane="2" arrivalLane="1"/>
  <vehicle id="veh_273_2" type="idmCar" route="route_22_7" depart="273" departLane="0" arrivalLane="0"/>
  <vehicle id="veh_273_3" type="idmCar" route="route_9_2" depart="273" departLane="3" arrivalLane="1"/>
  <vehicle id="veh_276_1" type="idmCar" route="route_12_13" depart="276" departLane="0" arrivalLane="0"/>
  <vehicle id="veh_279_1" type="idmCar" route="route_5_13" depart="279" departLane="1" arrivalLane="0"/>
  <vehicle id="veh_280_1" type="idmCar" route="route_11_18" depart="280" departLane="1" arrivalLane="0"/>
  <vehicle id="veh_280_2" type="idmCar" route="route_10_19" depart="280" departLane="2" arrivalLane="1"/>
  <vehicle id="veh_281_1" type="idmCar" route="route_12_13" depart="281" departLane="0" arrivalLane="0"/>
  <vehicle id="veh_283_1" type="idmCar" route="route_4_14" depart="283" departLane="2" arrivalLane="1"/>
  <vehicle id="veh_285_1" type="idmCar" route="route_16_2" depart="285" departLane="1" arrivalLane="1"/>
  <vehicle id="veh_285_2" type="idmCar" route="route_15_8" depart="285" departLane="2" arrivalLane="1"/>
  <vehicle id="veh_287_1" type="idmCar" route="route_12_13" depart="287" departLane="0" arrivalLane="0"/>
  <vehicle id="veh_289_1" type="idmCar" route="route_10_19" depart="289" departLane="2" arrivalLane="1"/>
  <vehicle id="veh_291_1" type="idmCar" route="route_22_7" depart="291" departLane="0" arrivalLane="0"/>
  <vehicle id="veh_291_2" type="idmCar" route="route_21_8" depart="291" departLane="1" arrivalLane="1"/>
  <vehicle id="veh_293_1" type="idmCar" route="route_9_2" depart="293" departLane="3" arrivalLane="1"/>
  <vehicle id="veh_297_1" type="idmCar" route="route_15_8" depart="297" departLane="2" arrivalLane="1"/>
  <vehicle id="veh_298_1" type="idmCar" route="route_5_13" depart="298" departLane="1" arrivalLane="0"/>
  <vehicle id="veh_298_2" type="idmCar" route="route_4_14" depart="298" departLane="2" arrivalLane="1"/>
  <vehicle id="veh_299_1" type="idmCar" route="route_6_7" depart="299" departLane="0" arrivalLane="0"/>
  <vehicle id="veh_304_1" type="idmCar" route="route_10_19" depart="304" departLane="2" arrivalLane="1"/>
  <vehicle id="veh_306_1" type="idmCar" route="route_11_18" depart="306" departLane="1" arrivalLane="0"/>
  <vehicle id="veh_308_1" type="idmCar" route="route_22_7" depart="308" departLane="0" arrivalLane="0"/>
  <vehicle id="veh_308_2" type="idmCar" route="route_21_8" depart="308" departLane="1" arrivalLane="1"/>
  <vehicle id="veh_309_1" type="idmCar" route="route_20_14" depart="309" departLane="2" arrivalLane="1"/>
  <vehicle id="veh_312_1" type="idmCar" route="route_9_1" depart="312" departLane="3" arrivalLane="0"/>
  <vehicle id="veh_314_1" type="idmCar" route="route_6_7" depart="314" departLane="0" arrivalLane="0"/>
  <vehicle id="veh_314_2" type="idmCar" route="route_5_13" depart="314" departLane="1" arrivalLane="0"/>
  <vehicle id="veh_314_3" type="idmCar" route="route_20_14" depart="314" departLane="2" arrivalLane="1"/>
  <vehicle id="veh_314_4" type="idmCar" route="route_12_13" depart="314" departLane="0" arrivalLane="0"/>
  <vehicle id="veh_315_1" type="idmCar" route="route_16_2" depart="315" departLane="1" arrivalLane="1"/>
  <vehicle id="veh_316_1" type="idmCar" route="route_17_1" depart="316" departLane="0" arrivalLane="0"/>
  <vehicle id="veh_316_2" type="idmCar" route="route_4_14" depart="316" departLane="2" arrivalLane="1"/>
  <vehicle id="veh_317_1" type="idmCar" route="route_6_7" depart="317" departLane="0" arrivalLane="0"/>
  <vehicle id="veh_317_2" type="idmCar" route="route_3_19" depart="317" departLane="3" arrivalLane="1"/>
  <vehicle id="veh_320_1" type="idmCar" route="route_15_8" depart="320" departLane="2" arrivalLane="1"/>
  <vehicle id="veh_321_1" type="idmCar" route="route_12_13" depart="321" departLane="0" arrivalLane="0"/>
  <vehicle id="veh_321_2" type="idmCar" route="route_17_18" depart="321" departLane="0" arrivalLane="0"/>
  <vehicle id="veh_322_1" type="idmCar" route="route_11_18" depart="322" departLane="1" arrivalLane="0"/>
  <vehicle id="veh_322_2" type="idmCar" route="route_10_19" depart="322" departLane="2" arrivalLane="1"/>
  <vehicle id="veh_323_1" type="idmCar" route="route_11_18" depart="323" departLane="1" arrivalLane="0"/>
  <vehicle id="veh_324_1" type="idmCar" route="route_22_7" depart="324" departLane="0" arrivalLane="0"/>
  <vehicle id="veh_329_1" type="idmCar" route="route_12_13" depart="329" departLane="0" arrivalLane="0"/>
  <vehicle id="veh_329_2" type="idmCar" route="route_21_8" depart="329" departLane="1" arrivalLane="1"/>
  <vehicle id="veh_331_1" type="idmCar" route="route_16_2" depart="331" departLane="1" arrivalLane="1"/>
  <vehicle id="veh_333_1" type="idmCar" route="route_5_13" depart="333" departLane="1" arrivalLane="0"/>
  <vehicle id="veh_336_1" type="idmCar" route="route_4_14" depart="336" departLane="2" arrivalLane="1"/>
  <vehicle id="veh_338_1" type="idmCar" route="route_3_19" depart="338" departLane="3" arrivalLane="1"/>
  <vehicle id="veh_344_1" type="idmCar" route="route_20_14" depart="344" departLane="2" arrivalLane="1"/>
  <vehicle id="veh_345_1" type="idmCar" route="route_10_19" depart="345" departLane="2" arrivalLane="1"/>
  <vehicle id="veh_345_2" type="idmCar" route="route_22_7" depart="345" departLane="0" arrivalLane="0"/>
  <vehicle id="veh_346_1" type="idmCar" route="route_11_18" depart="346" departLane="1" arrivalLane="0"/>
  <vehicle id="veh_347_1" type="idmCar" route="route_10_19" depart="347" departLane="2" arrivalLane="1"/>
  <vehicle id="veh_347_2" type="idmCar" route="route_9_19" depart="347" departLane="3" arrivalLane="1"/>
  <vehicle id="veh_349_1" type="idmCar" route="route_6_7" depart="349" departLane="0" arrivalLane="0"/>
  <vehicle id="veh_349_2" type="idmCar" route="route_5_13" depart="349" departLane="1" arrivalLane="0"/>
  <vehicle id="veh_349_3" type="idmCar" route="route_4_14" depart="349" departLane="2" arrivalLane="1"/>
  <vehicle id="veh_350_1" type="idmCar" route="route_16_2" depart="350" departLane="1" arrivalLane="1"/>
  <vehicle id="veh_353_1" type="idmCar" route="route_17_1" depart="353" departLane="0" arrivalLane="0"/>
  <vehicle id="veh_353_2" type="idmCar" route="route_15_8" depart="353" departLane="2" arrivalLane="1"/>
  <vehicle id="veh_353_3" type="idmCar" route="route_4_14" depart="353" departLane="2" arrivalLane="1"/>
  <vehicle id="veh_353_4" type="idmCar" route="route_3_18" depart="353" departLane="3" arrivalLane="0"/>
  <vehicle id="veh_358_1" type="idmCar" route="route_11_18" depart="358" departLane="1" arrivalLane="0"/>
  <vehicle id="veh_361_1" type="idmCar" route="route_10_19" depart="361" departLane="2" arrivalLane="1"/>
  <vehicle id="veh_361_2" type="idmCar" route="route_11_18" depart="361" departLane="1" arrivalLane="0"/>
  <vehicle id="veh_362_1" type="idmCar" route="route_9_2" depart="362" departLane="3" arrivalLane="1"/>
  <vehicle id="veh_365_1" type="idmCar" route="route_6_7" depart="365" departLane="0" arrivalLane="0"/>
  <vehicle id="veh_365_2" type="idmCar" route="route_22_7" depart="365" departLane="0" arrivalLane="0"/>
  <vehicle id="veh_365_3" type="idmCar" route="route_21_8" depart="365" departLane="1" arrivalLane="1"/>
  <vehicle id="veh_367_1" type="idmCar" route="route_16_2" depart="367" departLane="1" arrivalLane="1"/>
  <vehicle id="veh_369_1" type="idmCar" route="route_17_1" depart="369" departLane="0" arrivalLane="0"/>
  <vehicle id="veh_371_1" type="idmCar" route="route_4_14" depart="371" departLane="2" arrivalLane="1"/>
  <vehicle id="veh_372_1" type="idmCar" route="route_3_18" depart="372" departLane="3" arrivalLane="0"/>
  <vehicle id="veh_372_2" type="idmCar" route="route_5_13" depart="372" departLane="1" arrivalLane="0"/>