<?xml version="1.0" encoding="UTF-8"?>

<!-- generated on 2024-02-14 21:37:46 by Eclipse SUMO netedit Version 1.12.0
<configuration xmlns:xsi="http://www.w3.org/2001/XMLSchema-instance" xsi:noNamespaceSchemaLocation="http://sumo.dlr.de/xsd/netconvertConfiguration.xsd">

    <input>
        <sumo-net-file value="/home/tvillarr/Supriya/midday_new.net.xml"/>
    </input>

    <output>
        <output-file value="/home/tvillarr/Supriya/midday_new.net.xml"/>
    </output>

    <processing>
        <geometry.min-radius.fix.railways value="false"/>
        <geometry.max-grade.fix value="false"/>
        <offset.disable-normalization value="true"/>
        <lefthand value="false"/>
    </processing>

    <junctions>
        <no-turnarounds value="true"/>
        <junctions.corner-detail value="5"/>
        <junctions.limit-turn-speed value="5.5"/>
        <rectangular-lane-cut value="false"/>
    </junctions>

    <pedestrian>
        <walkingareas value="false"/>
    </pedestrian>

    <report>
        <aggregate-warnings value="5"/>
    </report>

</configuration>
-->

<net version="1.9" junctionCornerDetail="5" limitTurnSpeed="5.50" xmlns:xsi="http://www.w3.org/2001/XMLSchema-instance" xsi:noNamespaceSchemaLocation="http://sumo.dlr.de/xsd/net_file.xsd">

    <location netOffset="-233612.58,-3889376.06" convBoundary="1801.79,1683.04,4734.37,2595.35" origBoundary="-89.923359,35.112660,-89.871689,35.147736" projParameter="+proj=utm +zone=16 +ellps=WGS84 +datum=WGS84 +units=m +no_defs"/>

    <type id="highway.bridleway" priority="1" numLanes="1" speed="2.78" allow="pedestrian" oneway="1" width="2.00"/>
    <type id="highway.bus_guideway" priority="1" numLanes="1" speed="27.78" allow="bus" oneway="1"/>
    <type id="highway.cycleway" priority="1" numLanes="1" speed="8.33" allow="bicycle" oneway="0" width="1.00"/>
    <type id="highway.footway" priority="1" numLanes="1" speed="2.78" allow="pedestrian" oneway="1" width="2.00"/>
    <type id="highway.ford" priority="1" numLanes="1" speed="2.78" allow="army" oneway="0"/>
    <type id="highway.living_street" priority="2" numLanes="1" speed="2.78" disallow="tram rail_urban rail rail_electric rail_fast ship" oneway="0"/>
    <type id="highway.motorway" priority="14" numLanes="2" speed="39.44" allow="private emergency authority army vip passenger hov taxi bus coach delivery truck trailer motorcycle evehicle custom1 custom2" oneway="1"/>
    <type id="highway.motorway_link" priority="9" numLanes="1" speed="22.22" allow="private emergency authority army vip passenger hov taxi bus coach delivery truck trailer motorcycle evehicle custom1 custom2" oneway="1"/>
    <type id="highway.path" priority="1" numLanes="1" speed="2.78" allow="pedestrian bicycle" oneway="0" width="2.00"/>
    <type id="highway.pedestrian" priority="1" numLanes="1" speed="2.78" allow="pedestrian" oneway="1" width="2.00"/>
    <type id="highway.primary" priority="12" numLanes="2" speed="27.78" disallow="tram rail_urban rail rail_electric rail_fast ship" oneway="0"/>
    <type id="highway.primary_link" priority="7" numLanes="1" speed="22.22" disallow="tram rail_urban rail rail_electric rail_fast ship" oneway="0"/>
    <type id="highway.raceway" priority="15" numLanes="2" speed="83.33" allow="vip" oneway="0"/>
    <type id="highway.residential" priority="3" numLanes="1" speed="13.89" disallow="tram rail_urban rail rail_electric rail_fast ship" oneway="0"/>
    <type id="highway.secondary" priority="11" numLanes="1" speed="27.78" disallow="tram rail_urban rail rail_electric rail_fast ship" oneway="0"/>
    <type id="highway.secondary_link" priority="6" numLanes="1" speed="22.22" disallow="tram rail_urban rail rail_electric rail_fast ship" oneway="0"/>
    <type id="highway.service" priority="1" numLanes="1" speed="5.56" allow="pedestrian delivery bicycle" oneway="0"/>
    <type id="highway.stairs" priority="1" numLanes="1" speed="1.39" allow="pedestrian" oneway="1" width="2.00"/>
    <type id="highway.step" priority="1" numLanes="1" speed="1.39" allow="pedestrian" oneway="1" width="2.00"/>
    <type id="highway.steps" priority="1" numLanes="1" speed="1.39" allow="pedestrian" oneway="1" width="2.00"/>
    <type id="highway.tertiary" priority="10" numLanes="1" speed="22.22" disallow="tram rail_urban rail rail_electric rail_fast ship" oneway="0"/>
    <type id="highway.tertiary_link" priority="5" numLanes="1" speed="22.22" disallow="tram rail_urban rail rail_electric rail_fast ship" oneway="0"/>
    <type id="highway.track" priority="1" numLanes="1" speed="5.56" allow="pedestrian motorcycle moped bicycle" oneway="0"/>
    <type id="highway.trunk" priority="13" numLanes="2" speed="27.78" disallow="pedestrian bicycle tram rail_urban rail rail_electric rail_fast ship" oneway="0"/>
    <type id="highway.trunk_link" priority="8" numLanes="1" speed="22.22" disallow="pedestrian bicycle tram rail_urban rail rail_electric rail_fast ship" oneway="0"/>
    <type id="highway.unclassified" priority="4" numLanes="1" speed="13.89" disallow="tram rail_urban rail rail_electric rail_fast ship" oneway="0"/>
    <type id="highway.unsurfaced" priority="1" numLanes="1" speed="8.33" disallow="tram rail_urban rail rail_electric rail_fast ship" oneway="0"/>
    <type id="railway.highspeed" priority="21" numLanes="1" speed="69.44" allow="rail_fast" oneway="1"/>
    <type id="railway.light_rail" priority="19" numLanes="1" speed="27.78" allow="rail_urban" oneway="1"/>
    <type id="railway.preserved" priority="16" numLanes="1" speed="27.78" allow="rail" oneway="1"/>
    <type id="railway.rail" priority="20" numLanes="1" speed="44.44" allow="rail" oneway="1"/>
    <type id="railway.subway" priority="18" numLanes="1" speed="27.78" allow="rail_urban" oneway="1"/>
    <type id="railway.tram" priority="17" numLanes="1" speed="13.89" allow="tram" oneway="1"/>

    <edge id=":203713357_0" function="internal">
        <lane id=":203713357_0_0" index="0" disallow="tram rail_urban rail rail_electric rail_fast ship" speed="17.88" length="0.30" shape="2475.73,1772.99 2475.64,1773.00"/>
        <lane id=":203713357_0_1" index="1" disallow="tram rail_urban rail rail_electric rail_fast ship" speed="17.88" length="0.30" shape="2475.38,1769.81 2475.08,1769.85"/>
        <lane id=":203713357_0_2" index="2" disallow="tram rail_urban rail rail_electric rail_fast ship" speed="17.88" length="0.30" shape="2475.02,1766.63 2474.52,1766.70"/>
    </edge>
    <edge id=":203713357_3" function="internal">
        <lane id=":203713357_3_0" index="0" disallow="tram rail_urban rail rail_electric rail_fast ship" speed="3.65" length="1.44" shape="2475.02,1766.63 2473.73,1765.97"/>
    </edge>
    <edge id=":203713357_6" function="internal">
        <lane id=":203713357_6_0" index="0" disallow="tram rail_urban rail rail_electric rail_fast ship" speed="3.65" length="3.23" shape="2473.73,1765.97 2473.25,1765.22 2473.56,1764.38 2474.66,1763.45"/>
    </edge>
    <edge id=":203713357_4" function="internal">
        <lane id=":203713357_4_0" index="0" disallow="tram rail_urban rail rail_electric rail_fast ship" speed="17.88" length="0.80" shape="2473.41,1760.40 2474.30,1760.27"/>
        <lane id=":203713357_4_1" index="1" disallow="tram rail_urban rail rail_electric rail_fast ship" speed="17.88" length="0.80" shape="2473.97,1763.55 2474.66,1763.45"/>
    </edge>
    <edge id=":203790607_0" function="internal">
        <lane id=":203790607_0_0" index="0" disallow="tram rail_urban rail rail_electric rail_fast ship" speed="3.65" length="4.67" shape="2979.98,1965.85 2981.17,1966.65 2981.57,1967.46 2981.17,1968.25 2979.96,1969.05"/>
    </edge>
    <edge id=":203814412_0" function="internal">
        <lane id=":203814412_0_0" index="0" disallow="tram rail_urban rail rail_electric rail_fast ship" speed="17.88" length="0.33" shape="2824.91,1983.84 2824.55,1983.86"/>
        <lane id=":203814412_0_1" index="1" disallow="tram rail_urban rail rail_electric rail_fast ship" speed="17.88" length="0.33" shape="2824.69,1980.65 2824.36,1980.67"/>
        <lane id=":203814412_0_2" index="2" disallow="tram rail_urban rail rail_electric rail_fast ship" speed="17.88" length="0.33" shape="2824.48,1977.46 2824.18,1977.48"/>
    </edge>
    <edge id=":203814412_3" function="internal">
        <lane id=":203814412_3_0" index="0" disallow="tram rail_urban rail rail_electric rail_fast ship" speed="3.65" length="2.34" shape="2824.48,1977.46 2823.22,1976.74 2822.77,1975.97"/>
    </edge>
    <edge id=":203814412_7" function="internal">
        <lane id=":203814412_7_0" index="0" disallow="tram rail_urban rail rail_electric rail_fast ship" speed="3.65" length="2.34" shape="2822.77,1975.97 2823.12,1975.14 2824.26,1974.26"/>
    </edge>
    <edge id=":203814412_4" function="internal">
        <lane id=":203814412_4_0" index="0" disallow="tram rail_urban rail rail_electric rail_fast ship" speed="17.88" length="0.24" shape="2823.82,1971.09 2824.04,1971.07"/>
        <lane id=":203814412_4_1" index="1" disallow="tram rail_urban rail rail_electric rail_fast ship" speed="17.88" length="0.24" shape="2824.00,1974.28 2824.26,1974.26"/>
    </edge>
    <edge id=":203814412_6" function="internal">
        <lane id=":203814412_6_0" index="0" disallow="tram rail_urban rail rail_electric rail_fast ship" speed="3.65" length="2.34" shape="2824.00,1974.28 2825.24,1975.01 2825.69,1975.79"/>
    </edge>
    <edge id=":203814412_8" function="internal">
        <lane id=":203814412_8_0" index="0" disallow="tram rail_urban rail rail_electric rail_fast ship" speed="3.65" length="2.34" shape="2825.69,1975.79 2825.34,1976.61 2824.18,1977.48"/>
    </edge>
    <edge id=":203822582_0" function="internal">
        <lane id=":203822582_0_0" index="0" disallow="tram rail_urban rail rail_electric rail_fast ship" speed="17.88" length="0.24" shape="2293.14,2442.08 2293.13,2441.92"/>
        <lane id=":203822582_0_1" index="1" disallow="tram rail_urban rail rail_electric rail_fast ship" speed="17.88" length="0.24" shape="2296.34,2441.93 2296.33,2441.72"/>
        <lane id=":203822582_0_2" index="2" disallow="tram rail_urban rail rail_electric rail_fast ship" speed="17.88" length="0.24" shape="2299.53,2441.78 2299.52,2441.51"/>
        <lane id=":203822582_0_3" index="3" disallow="tram rail_urban rail rail_electric rail_fast ship" speed="17.88" length="0.24" shape="2302.73,2441.62 2302.71,2441.31"/>
    </edge>
    <edge id=":203822582_4" function="internal">
        <lane id=":203822582_4_0" index="0" disallow="tram rail_urban rail rail_electric rail_fast ship" speed="3.65" length="2.34" shape="2302.73,2441.62 2303.47,2440.39 2304.25,2439.95"/>
    </edge>
    <edge id=":203822582_7" function="internal">
        <lane id=":203822582_7_0" index="0" disallow="tram rail_urban rail rail_electric rail_fast ship" speed="3.65" length="2.34" shape="2304.25,2439.95 2305.07,2440.31 2305.93,2441.47"/>
    </edge>
    <edge id=":203822582_5" function="internal">
        <lane id=":203822582_5_0" index="0" disallow="tram rail_urban rail rail_electric rail_fast ship" speed="17.88" length="0.39" shape="2309.10,2440.91 2309.12,2441.32"/>
        <lane id=":203822582_5_1" index="1" disallow="tram rail_urban rail rail_electric rail_fast ship" speed="17.88" length="0.39" shape="2305.91,2441.11 2305.93,2441.47"/>
    </edge>
    <edge id=":203884162_0" function="internal">
        <lane id=":203884162_0_0" index="0" disallow="tram rail_urban rail rail_electric rail_fast ship" speed="17.88" length="0.28" shape="2647.93,1992.53 2647.68,1992.55"/>
        <lane id=":203884162_0_1" index="1" disallow="tram rail_urban rail rail_electric rail_fast ship" speed="17.88" length="0.28" shape="2647.78,1989.34 2647.51,1989.35"/>
        <lane id=":203884162_0_2" index="2" disallow="tram rail_urban rail rail_electric rail_fast ship" speed="17.88" length="0.28" shape="2647.63,1986.14 2647.33,1986.16"/>
    </edge>
    <edge id=":203884162_3" function="internal">
        <lane id=":203884162_3_0" index="0" disallow="tram rail_urban rail rail_electric rail_fast ship" speed="3.65" length="2.34" shape="2647.63,1986.14 2646.39,1985.40 2645.96,1984.62"/>
    </edge>
    <edge id=":203884162_6" function="internal">
        <lane id=":203884162_6_0" index="0" disallow="tram rail_urban rail rail_electric rail_fast ship" speed="3.65" length="2.34" shape="2645.96,1984.62 2646.32,1983.80 2647.48,1982.94"/>
    </edge>
    <edge id=":203884162_4" function="internal">
        <lane id=":203884162_4_0" index="0" disallow="tram rail_urban rail rail_electric rail_fast ship" speed="17.88" length="0.33" shape="2646.99,1979.77 2647.33,1979.75"/>
        <lane id=":203884162_4_1" index="1" disallow="tram rail_urban rail rail_electric rail_fast ship" speed="17.88" length="0.33" shape="2647.16,1982.96 2647.48,1982.94"/>
    </edge>
    <edge id=":203884165_0" function="internal">
        <lane id=":203884165_0_0" index="0" disallow="tram rail_urban rail rail_electric rail_fast ship" speed="3.65" length="4.67" shape="2615.81,1682.33 2617.06,1681.61 2617.96,1681.60 2618.50,1682.32 2618.69,1683.75"/>
    </edge>
    <edge id=":203916135_0" function="internal">
        <lane id=":203916135_0_0" index="0" disallow="tram rail_urban rail rail_electric rail_fast ship" speed="17.88" length="0.28" shape="1899.49,2054.79 1899.21,2054.81"/>
        <lane id=":203916135_0_1" index="1" disallow="tram rail_urban rail rail_electric rail_fast ship" speed="17.88" length="0.28" shape="1899.27,2051.60 1898.99,2051.62"/>
    </edge>
    <edge id=":203916135_2" function="internal">
        <lane id=":203916135_2_0" index="0" disallow="tram rail_urban rail rail_electric rail_fast ship" speed="17.88" length="0.31" shape="1898.09,2038.85 1898.42,2038.83"/>
        <lane id=":203916135_2_1" index="1" disallow="tram rail_urban rail rail_electric rail_fast ship" speed="17.88" length="0.31" shape="1898.32,2042.04 1898.63,2042.02"/>
        <lane id=":203916135_2_2" index="2" disallow="tram rail_urban rail rail_electric rail_fast ship" speed="17.88" length="0.31" shape="1898.54,2045.23 1898.84,2045.21"/>
        <lane id=":203916135_2_3" index="3" disallow="tram rail_urban rail rail_electric rail_fast ship" speed="17.88" length="0.31" shape="1898.76,2048.42 1899.06,2048.40"/>
    </edge>
    <edge id=":203916135_6" function="internal">
        <lane id=":203916135_6_0" index="0" disallow="tram rail_urban rail rail_electric rail_fast ship" speed="3.65" length="2.34" shape="1898.76,2048.42 1900.02,2049.14 1900.47,2049.91"/>
    </edge>
    <edge id=":203916135_7" function="internal">
        <lane id=":203916135_7_0" index="0" disallow="tram rail_urban rail rail_electric rail_fast ship" speed="3.65" length="2.34" shape="1900.47,2049.91 1900.13,2050.73 1898.99,2051.62"/>
    </edge>
    <edge id=":203926974_0" function="internal">
        <lane id=":203926974_0_0" index="0" disallow="tram rail_urban rail rail_electric rail_fast ship" speed="10.93" length="21.02" shape="2299.81,2023.73 2293.02,2025.81 2288.09,2028.43 2285.01,2031.60 2283.79,2035.31"/>
    </edge>
    <edge id=":203926974_1" function="internal">
        <lane id=":203926974_1_0" index="0" disallow="tram rail_urban rail rail_electric rail_fast ship" speed="17.88" length="38.00" shape="2299.81,2023.73 2262.26,2029.42"/>
        <lane id=":203926974_1_1" index="1" disallow="tram rail_urban rail rail_electric rail_fast ship" speed="17.88" length="38.00" shape="2299.08,2020.61 2261.50,2026.32"/>
    </edge>
    <edge id=":203926974_3" function="internal">
        <lane id=":203926974_3_0" index="0" disallow="tram rail_urban rail rail_electric rail_fast ship" speed="8.66" length="23.16" shape="2298.35,2017.49 2292.85,2016.95 2287.42,2013.73 2283.59,2008.97 2282.88,2003.81"/>
    </edge>
    <edge id=":203926974_4" function="internal">
        <lane id=":203926974_4_0" index="0" disallow="tram rail_urban rail rail_electric rail_fast ship" speed="5.70" length="9.21" shape="2292.14,2006.34 2291.78,2009.06 2292.45,2010.79 2294.16,2011.53 2296.89,2011.26"/>
    </edge>
    <edge id=":203926974_5" function="internal">
        <lane id=":203926974_5_0" index="0" disallow="tram rail_urban rail rail_electric rail_fast ship" speed="17.88" length="30.53" shape="2292.14,2006.34 2289.28,2015.57 2286.76,2022.51 2284.85,2028.61 2283.79,2035.31"/>
        <lane id=":203926974_5_1" index="1" disallow="tram rail_urban rail rail_electric rail_fast ship" speed="17.88" length="30.53" shape="2289.05,2005.50 2286.17,2014.82 2283.62,2021.97 2281.67,2028.28 2280.60,2035.07"/>
    </edge>
    <edge id=":203926974_7" function="internal">
        <lane id=":203926974_7_0" index="0" disallow="tram rail_urban rail rail_electric rail_fast ship" speed="15.27" length="33.41" shape="2285.97,2004.65 2282.50,2010.65 2276.08,2017.31 2268.49,2023.06 2261.50,2026.32"/>
    </edge>
    <edge id=":203926974_8" function="internal">
        <lane id=":203926974_8_0" index="0" disallow="tram rail_urban rail rail_electric rail_fast ship" speed="13.16" length="24.65" shape="2258.47,2013.88 2267.17,2011.40 2273.63,2008.75 2277.84,2005.94 2279.79,2002.97"/>
    </edge>
    <edge id=":203926974_9" function="internal">
        <lane id=":203926974_9_0" index="0" disallow="tram rail_urban rail rail_electric rail_fast ship" speed="17.88" length="38.11" shape="2259.23,2016.99 2271.55,2014.51 2281.35,2013.29 2289.50,2012.48 2296.89,2011.26"/>
        <lane id=":203926974_9_1" index="1" disallow="tram rail_urban rail rail_electric rail_fast ship" speed="17.88" length="38.11" shape="2259.99,2020.10 2272.30,2017.62 2282.09,2016.40 2290.24,2015.60 2297.62,2014.38"/>
    </edge>
    <edge id=":203926974_11" function="internal">
        <lane id=":203926974_11_0" index="0" disallow="tram rail_urban rail rail_electric rail_fast ship" speed="9.55" length="25.58" shape="2260.74,2023.21 2267.09,2023.21 2273.69,2025.57 2278.79,2029.72 2280.60,2035.07"/>
    </edge>
    <edge id=":203926974_12" function="internal">
        <lane id=":203926974_12_0" index="0" disallow="tram rail_urban rail rail_electric rail_fast ship" speed="5.94" length="9.09" shape="2267.83,2034.14 2267.65,2031.52 2266.67,2029.87 2264.87,2029.17 2262.26,2029.42"/>
    </edge>
    <edge id=":203926974_13" function="internal">
        <lane id=":203926974_13_0" index="0" disallow="tram rail_urban rail rail_electric rail_fast ship" speed="17.88" length="32.44" shape="2271.02,2034.37 2272.53,2023.96 2274.87,2016.19 2277.48,2009.66 2279.79,2002.97"/>
        <lane id=":203926974_13_1" index="1" disallow="tram rail_urban rail rail_electric rail_fast ship" speed="17.88" length="32.44" shape="2274.21,2034.61 2275.69,2024.42 2278.00,2016.85 2280.58,2010.45 2282.88,2003.81"/>
    </edge>
    <edge id=":203926974_15" function="internal">
        <lane id=":203926974_15_0" index="0" disallow="tram rail_urban rail rail_electric rail_fast ship" speed="12.97" length="29.96" shape="2277.40,2034.84 2279.58,2028.80 2284.47,2022.59 2290.89,2017.39 2297.62,2014.38"/>
    </edge>
    <edge id=":203926974_16" function="internal">
        <lane id=":203926974_16_0" index="0" disallow="tram rail_urban rail rail_electric rail_fast ship" speed="3.65" length="4.67" shape="2277.40,2034.84 2278.29,2033.70 2279.12,2033.36 2279.89,2033.82 2280.60,2035.07"/>
    </edge>
    <edge id=":203926992_0" function="internal">
        <lane id=":203926992_0_0" index="0" disallow="tram rail_urban rail rail_electric rail_fast ship" speed="17.88" length="2.28" shape="2586.30,1742.03 2585.68,1742.64 2585.24,1743.03 2584.76,1743.39 2584.03,1743.87"/>
        <lane id=":203926992_0_1" index="1" disallow="tram rail_urban rail rail_electric rail_fast ship" speed="17.88" length="2.28" shape="2584.04,1739.76 2583.55,1740.24 2583.21,1740.55 2582.84,1740.82 2582.27,1741.20"/>
        <lane id=":203926992_0_2" index="2" disallow="tram rail_urban rail rail_electric rail_fast ship" speed="17.88" length="2.28" shape="2581.77,1737.50 2581.43,1737.84 2581.18,1738.06 2580.92,1738.26 2580.51,1738.53"/>
    </edge>
    <edge id=":203926992_3" function="internal">
        <lane id=":203926992_3_0" index="0" disallow="tram rail_urban rail rail_electric rail_fast ship" speed="17.88" length="0.65" shape="2577.00,1733.18 2577.08,1733.13 2577.13,1733.09 2577.18,1733.04 2577.25,1732.97"/>
        <lane id=":203926992_3_1" index="1" disallow="tram rail_urban rail rail_electric rail_fast ship" speed="17.88" length="0.65" shape="2578.75,1735.85 2579.00,1735.69 2579.16,1735.57 2579.30,1735.44 2579.51,1735.24"/>
    </edge>
    <edge id=":203938581_0" function="internal">
        <lane id=":203938581_0_0" index="0" disallow="tram rail_urban rail rail_electric rail_fast ship" speed="17.88" length="0.33" shape="2788.75,1985.90 2788.40,1985.92"/>
        <lane id=":203938581_0_1" index="1" disallow="tram rail_urban rail rail_electric rail_fast ship" speed="17.88" length="0.33" shape="2788.57,1982.70 2788.25,1982.72"/>
        <lane id=":203938581_0_2" index="2" disallow="tram rail_urban rail rail_electric rail_fast ship" speed="17.88" length="0.33" shape="2788.39,1979.51 2788.10,1979.52"/>
    </edge>
    <edge id=":203938581_3" function="internal">
        <lane id=":203938581_3_0" index="0" disallow="tram rail_urban rail rail_electric rail_fast ship" speed="3.65" length="2.34" shape="2788.39,1979.51 2787.15,1978.78 2786.70,1978.00"/>
    </edge>
    <edge id=":203938581_7" function="internal">
        <lane id=":203938581_7_0" index="0" disallow="tram rail_urban rail rail_electric rail_fast ship" speed="3.65" length="2.34" shape="2786.70,1978.00 2787.06,1977.18 2788.21,1976.31"/>
    </edge>
    <edge id=":203938581_4" function="internal">
        <lane id=":203938581_4_0" index="0" disallow="tram rail_urban rail rail_electric rail_fast ship" speed="17.88" length="0.25" shape="2787.79,1973.13 2788.03,1973.12"/>
        <lane id=":203938581_4_1" index="1" disallow="tram rail_urban rail rail_electric rail_fast ship" speed="17.88" length="0.25" shape="2787.94,1976.33 2788.21,1976.31"/>
    </edge>
    <edge id=":203938581_6" function="internal">
        <lane id=":203938581_6_0" index="0" disallow="tram rail_urban rail rail_electric rail_fast ship" speed="3.65" length="2.34" shape="2787.94,1976.33 2789.18,1977.07 2789.62,1977.85"/>
    </edge>
    <edge id=":203938581_8" function="internal">
        <lane id=":203938581_8_0" index="0" disallow="tram rail_urban rail rail_electric rail_fast ship" speed="3.65" length="2.34" shape="2789.62,1977.85 2789.26,1978.67 2788.10,1979.52"/>
    </edge>
    <edge id=":203938584_0" function="internal">
        <lane id=":203938584_0_0" index="0" disallow="tram rail_urban rail rail_electric rail_fast ship" speed="17.88" length="0.35" shape="2950.09,1975.33 2949.98,1975.33"/>
        <lane id=":203938584_0_1" index="1" disallow="tram rail_urban rail rail_electric rail_fast ship" speed="17.88" length="0.35" shape="2950.11,1972.13 2949.76,1972.14"/>
        <lane id=":203938584_0_2" index="2" disallow="tram rail_urban rail rail_electric rail_fast ship" speed="17.88" length="0.35" shape="2950.12,1968.93 2949.54,1968.95"/>
    </edge>
    <edge id=":203938584_3" function="internal">
        <lane id=":203938584_3_0" index="0" disallow="tram rail_urban rail rail_electric rail_fast ship" speed="3.65" length="1.44" shape="2950.12,1968.93 2948.92,1968.13"/>
    </edge>
    <edge id=":203938584_7" function="internal">
        <lane id=":203938584_7_0" index="0" disallow="tram rail_urban rail rail_electric rail_fast ship" speed="3.65" length="3.23" shape="2948.92,1968.13 2948.53,1967.33 2948.93,1966.53 2950.13,1965.73"/>
    </edge>
    <edge id=":203938584_4" function="internal">
        <lane id=":203938584_4_0" index="0" disallow="tram rail_urban rail rail_electric rail_fast ship" speed="17.88" length="0.92" shape="2949.11,1962.56 2950.14,1962.53"/>
        <lane id=":203938584_4_1" index="1" disallow="tram rail_urban rail rail_electric rail_fast ship" speed="17.88" length="0.92" shape="2949.33,1965.76 2950.13,1965.73"/>
    </edge>
    <edge id=":203938584_6" function="internal">
        <lane id=":203938584_6_0" index="0" disallow="tram rail_urban rail rail_electric rail_fast ship" speed="3.65" length="1.44" shape="2949.33,1965.76 2950.58,1966.47"/>
    </edge>
    <edge id=":203938584_8" function="internal">
        <lane id=":203938584_8_0" index="0" disallow="tram rail_urban rail rail_electric rail_fast ship" speed="3.65" length="3.23" shape="2950.58,1966.47 2951.03,1967.24 2950.69,1968.07 2949.54,1968.95"/>
    </edge>
    <edge id=":203939199_0" function="internal">
        <lane id=":203939199_0_0" index="0" disallow="tram rail_urban rail rail_electric rail_fast ship" speed="3.65" length="4.67" shape="2313.93,2595.27 2313.19,2596.51 2312.41,2596.95 2311.59,2596.59 2310.73,2595.43"/>
    </edge>
    <edge id=":203951954_0" function="internal">
        <lane id=":203951954_0_0" index="0" disallow="tram rail_urban rail rail_electric rail_fast ship" speed="17.88" length="0.28" shape="2298.05,2535.69 2298.04,2535.43"/>
        <lane id=":203951954_0_1" index="1" disallow="tram rail_urban rail rail_electric rail_fast ship" speed="17.88" length="0.28" shape="2301.25,2535.53 2301.23,2535.25"/>
        <lane id=":203951954_0_2" index="2" disallow="tram rail_urban rail rail_electric rail_fast ship" speed="17.88" length="0.28" shape="2304.44,2535.36 2304.43,2535.07"/>
        <lane id=":203951954_0_3" index="3" disallow="tram rail_urban rail rail_electric rail_fast ship" speed="17.88" length="0.28" shape="2307.64,2535.20 2307.62,2534.89"/>
    </edge>
    <edge id=":203951954_4" function="internal">
        <lane id=":203951954_4_0" index="0" disallow="tram rail_urban rail rail_electric rail_fast ship" speed="3.65" length="2.34" shape="2307.64,2535.20 2308.38,2533.96 2309.16,2533.52"/>
    </edge>
    <edge id=":203951954_8" function="internal">
        <lane id=":203951954_8_0" index="0" disallow="tram rail_urban rail rail_electric rail_fast ship" speed="3.65" length="2.34" shape="2309.16,2533.52 2309.98,2533.88 2310.84,2535.03"/>
    </edge>
    <edge id=":203951954_5" function="internal">
        <lane id=":203951954_5_0" index="0" disallow="tram rail_urban rail rail_electric rail_fast ship" speed="17.88" length="0.33" shape="2314.01,2534.54 2314.03,2534.87"/>
        <lane id=":203951954_5_1" index="1" disallow="tram rail_urban rail rail_electric rail_fast ship" speed="17.88" length="0.33" shape="2310.82,2534.71 2310.84,2535.03"/>
    </edge>
    <edge id=":203951954_7" function="internal">
        <lane id=":203951954_7_0" index="0" disallow="tram rail_urban rail rail_electric rail_fast ship" speed="3.65" length="2.34" shape="2310.82,2534.71 2310.09,2535.96 2309.31,2536.40"/>
    </edge>
    <edge id=":203951954_9" function="internal">
        <lane id=":203951954_9_0" index="0" disallow="tram rail_urban rail rail_electric rail_fast ship" speed="3.65" length="2.34" shape="2309.31,2536.40 2308.49,2536.05 2307.62,2534.89"/>
    </edge>
    <edge id=":203951998_0" function="internal">
        <lane id=":203951998_0_0" index="0" disallow="tram rail_urban rail rail_electric rail_fast ship" speed="17.88" length="0.32" shape="2295.02,2481.40 2295.00,2481.04"/>
        <lane id=":203951998_0_1" index="1" disallow="tram rail_urban rail rail_electric rail_fast ship" speed="17.88" length="0.32" shape="2298.21,2481.22 2298.19,2480.89"/>
        <lane id=":203951998_0_2" index="2" disallow="tram rail_urban rail rail_electric rail_fast ship" speed="17.88" length="0.32" shape="2301.41,2481.04 2301.39,2480.73"/>
        <lane id=":203951998_0_3" index="3" disallow="tram rail_urban rail rail_electric rail_fast ship" speed="17.88" length="0.32" shape="2304.60,2480.86 2304.59,2480.58"/>
    </edge>
    <edge id=":203951998_4" function="internal">
        <lane id=":203951998_4_0" index="0" disallow="tram rail_urban rail rail_electric rail_fast ship" speed="3.65" length="2.34" shape="2304.60,2480.86 2305.33,2479.62 2306.11,2479.18"/>
    </edge>
    <edge id=":203951998_8" function="internal">
        <lane id=":203951998_8_0" index="0" disallow="tram rail_urban rail rail_electric rail_fast ship" speed="3.65" length="2.34" shape="2306.11,2479.18 2306.93,2479.53 2307.80,2480.69"/>
    </edge>
    <edge id=":203951998_5" function="internal">
        <lane id=":203951998_5_0" index="0" disallow="tram rail_urban rail rail_electric rail_fast ship" speed="17.88" length="0.24" shape="2310.98,2480.28 2310.99,2480.51"/>
        <lane id=":203951998_5_1" index="1" disallow="tram rail_urban rail rail_electric rail_fast ship" speed="17.88" length="0.24" shape="2307.78,2480.43 2307.80,2480.69"/>
    </edge>
    <edge id=":203951998_7" function="internal">
        <lane id=":203951998_7_0" index="0" disallow="tram rail_urban rail rail_electric rail_fast ship" speed="3.65" length="2.34" shape="2307.78,2480.43 2307.04,2481.67 2306.26,2482.10"/>
    </edge>
    <edge id=":203951998_9" function="internal">
        <lane id=":203951998_9_0" index="0" disallow="tram rail_urban rail rail_electric rail_fast ship" speed="3.65" length="2.34" shape="2306.26,2482.10 2305.44,2481.74 2304.59,2480.58"/>
    </edge>
    <edge id=":6331540040_0" function="internal">
        <lane id=":6331540040_0_0" index="0" disallow="tram rail_urban rail rail_electric rail_fast ship" speed="17.88" length="0.90" shape="2578.94,1747.22 2577.95,1747.82"/>
        <lane id=":6331540040_0_1" index="1" disallow="tram rail_urban rail rail_electric rail_fast ship" speed="17.88" length="0.90" shape="2577.18,1744.55 2576.41,1745.01"/>
        <lane id=":6331540040_0_2" index="2" disallow="tram rail_urban rail rail_electric rail_fast ship" speed="17.88" length="0.90" shape="2575.43,1741.87 2574.87,1742.21"/>
    </edge>
    <edge id=":6331540040_3" function="internal">
        <lane id=":6331540040_3_0" index="0" disallow="tram rail_urban rail rail_electric rail_fast ship" speed="17.88" length="0.26" shape="2571.80,1736.59 2571.91,1736.53"/>